
00000 LOCAL HEADER #1       04034B50 (67324752)
00004 Extract Zip Spec      14 (20) '2.0'
00005 Extract OS            00 (0) 'MS-DOS'
00006 General Purpose Flag  080A (2058)
      [Bits 1-2]            1 'Maximum Compression'
      [Bit  3]              1 'Streamed'
      [Bit 11]              1 'Language Encoding'
00008 Compression Method    0008 (8) 'Deflated'
0000A Last Mod Time         56216F52 (1445031762) 'Sun Jan  1 13:58:36 2023'
0000E CRC                   00000000 (0)
00012 Compressed Length     FFFFFFFF (4294967295)
00016 Uncompressed Length   FFFFFFFF (4294967295)
0001A Filename Length       0009 (9)
0001C Extra Length          06E4 (1764)
0001E Filename              'empty.txt'
00027 Extra ID #1           0001 (1) 'ZIP64'
00029   Length              0010 (16)
0002B   Uncompressed Size   0000000000000000 (0)
00033   Compressed Size     0000000000000000 (0)
0003B Extra ID #2           1A51 (6737) 'Minizip Hash'
0003D   Length              0024 (36)
0003F   Algorithm           0017 (23) 'SHA256'
00041   Digest Size         0020 (32)
00043   Digest              E3 B0 C4 42 98 FC 1C 14 9A FB F4 C8 99 6F B9 24
                            27 AE 41 E4 64 9B 93 4C A4 95 99 1B 78 52 B8 55
00063 Extra ID #3           10C5 (4293) 'Minizip CMS Signature'
00065   Length              06A4 (1700)
00067   Signature           30 82 06 A0 06 09 2A 86 48 86 F7 0D 01 07 02 A0
                            82 06 91 30 82 06 8D 02 01 01 31 0D 30 0B 06 09
                            60 86 48 01 65 03 04 02 01 30 2F 06 09 2A 86 48
                            86 F7 0D 01 07 01 A0 22 04 20 E3 B0 C4 42 98 FC
                            1C 14 9A FB F4 C8 99 6F B9 24 27 AE 41 E4 64 9B
                            93 4C A4 95 99 1B 78 52 B8 55 A0 82 03 AB 30 82
                            03 A7 30 82 02 8F A0 03 02 01 02 02 01 01 30 0D
                            06 09 2A 86 48 86 F7 0D 01 01 0B 05 00 30 81 80
                            31 10 30 0E 06 03 55 04 03 0C 07 4D 69 6E 69 7A
                            69 70 31 10 30 0E 06 03 55 04 0A 0C 07 4D 69 6E
                            69 7A 69 70 31 0B 30 09 06 03 55 04 0B 0C 02 4D
                            5A 31 0B 30 09 06 03 55 04 08 0C 02 41 5A 31 0B
                            30 09 06 03 55 04 06 13 02 55 53 31 10 30 0E 06
                            03 55 04 07 0C 07 50 68 6F 65 6E 69 78 31 21 30
                            1F 06 09 2A 86 48 86 F7 0D 01 09 01 16 12 6E 61
                            74 68 61 6E 40 6E 61 74 68 61 6E 6D 2E 63 6F 6D
                            30 1E 17 0D 31 39 31 31 31 31 30 32 32 36 30 31
                            5A 17 0D 33 38 30 32 31 30 30 32 32 36 30 31 5A
                            30 81 80 31 10 30 0E 06 03 55 04 03 0C 07 4D 69
                            6E 69 7A 69 70 31 10 30 0E 06 03 55 04 0A 0C 07
                            4D 69 6E 69 7A 69 70 31 0B 30 09 06 03 55 04 0B
                            0C 02 4D 5A 31 0B 30 09 06 03 55 04 08 0C 02 41
                            5A 31 0B 30 09 06 03 55 04 06 13 02 55 53 31 10
                            30 0E 06 03 55 04 07 0C 07 50 68 6F 65 6E 69 78
                            31 21 30 1F 06 09 2A 86 48 86 F7 0D 01 09 01 16
                            12 6E 61 74 68 61 6E 40 6E 61 74 68 61 6E 6D 2E
                            63 6F 6D 30 82 01 22 30 0D 06 09 2A 86 48 86 F7
                            0D 01 01 01 05 00 03 82 01 0F 00 30 82 01 0A 02
                            82 01 01 00 E4 67 1E 97 E3 28 DC 91 2A 25 68 CE
                            24 C3 5D 00 2B E4 16 DA 8E ED F7 BE 15 BA 45 52
                            B5 98 16 C3 5A 60 D0 52 04 5A FE 21 E5 A4 93 31
                            78 73 A6 01 93 9E CD EB BE 87 D5 56 27 D0 A8 D7
                            33 0E ED AA 09 7D BB C7 93 B8 98 4C 50 58 EE 51
                            69 5E 2E 71 74 CB D2 9E 09 8D AB 6F 83 1A 70 32
                            97 0B 8F 8E 6C 05 99 B1 5F B4 C2 FF 16 4F EE E4
                            FF F4 28 1E 25 C4 B6 34 9F 9A 54 A6 93 BA B1 4E
                            09 E9 2D 4D 8E 53 5C D7 DC D6 D5 FC B6 05 73 22
                            6D 3C 44 17 3F 52 31 60 A9 28 FC B6 D8 96 C1 87
                            32 16 87 37 D0 42 55 47 B1 09 B1 F3 26 91 2C C2
                            D8 18 DB AB 8D 9F 20 25 C3 9B 31 0A 3B 6A D3 7A
                            20 96 FB AD 44 A0 4E DD B1 2D C7 8B F9 A1 46 8D
                            BF 1D 35 AA 76 7D BF CA B1 63 54 47 E3 8C B3 C1
                            95 12 31 E8 3A B8 2E E7 1A 86 37 61 95 01 EA 1C
                            70 FC 83 C9 25 64 D0 1D 27 A8 9D 5B C8 30 68 1E
                            58 BE 7F 03 02 03 01 00 01 A3 2A 30 28 30 0E 06
                            03 55 1D 0F 01 01 FF 04 04 03 02 02 84 30 16 06
                            03 55 1D 25 01 01 FF 04 0C 30 0A 06 08 2B 06 01
                            05 05 07 03 03 30 0D 06 09 2A 86 48 86 F7 0D 01
                            01 0B 05 00 03 82 01 01 00 56 70 B4 F8 86 44 84
                            D5 CB 13 8F 62 21 46 F4 68 29 7E 5E 3B 3E 20 FC
                            62 F8 05 B3 2C 06 62 18 75 33 5C 01 3F CC 34 5E
                            60 22 07 99 44 72 54 89 A6 A9 AD 30 1A C0 6E 8A
                            99 B7 FD 71 45 12 CF 4E 1B 58 C8 AD 12 B2 66 60
                            03 C2 F4 F9 99 84 DE 74 D5 8C C8 B2 BF 1C 86 4B
                            39 F8 C0 84 D1 9D 0F E9 24 E0 A2 BD E1 C4 66 79
                            45 2B A1 EA F0 B3 2A 38 08 38 D3 17 39 EB EE 04
                            F0 88 B4 96 66 28 8A CE A3 01 C7 FD 5B D3 61 45
                            5C 9F 76 6A 05 13 D5 38 77 85 B8 1B A0 47 2C 3C
                            FD 1A A9 53 F4 A9 3D BD 4F BA 9A 3D 33 B2 95 54
                            DC ED A5 73 33 7D 55 76 B7 0D B2 35 08 99 EC 64
                            97 28 5E B9 BA 40 DF 43 CB 7B FB 87 16 6C 83 66
                            2A 99 03 C8 0E 41 83 99 5C 41 3D C3 A6 32 A6 89
                            44 D8 1A DA 8A 53 5D E6 FC E8 1B 11 2F 60 C9 A9
                            A9 7D CB 0D 8A 8A D3 88 AC 3A 26 74 AE C2 3B FA
                            54 06 42 F8 56 65 CF 4D DB 31 82 02 97 30 82 02
                            93 02 01 01 30 81 86 30 81 80 31 10 30 0E 06 03
                            55 04 03 0C 07 4D 69 6E 69 7A 69 70 31 10 30 0E
                            06 03 55 04 0A 0C 07 4D 69 6E 69 7A 69 70 31 0B
                            30 09 06 03 55 04 0B 0C 02 4D 5A 31 0B 30 09 06
                            03 55 04 08 0C 02 41 5A 31 0B 30 09 06 03 55 04
                            06 13 02 55 53 31 10 30 0E 06 03 55 04 07 0C 07
                            50 68 6F 65 6E 69 78 31 21 30 1F 06 09 2A 86 48
                            86 F7 0D 01 09 01 16 12 6E 61 74 68 61 6E 40 6E
                            61 74 68 61 6E 6D 2E 63 6F 6D 02 01 01 30 0B 06
                            09 60 86 48 01 65 03 04 02 01 A0 81 E4 30 18 06
                            09 2A 86 48 86 F7 0D 01 09 03 31 0B 06 09 2A 86
                            48 86 F7 0D 01 07 01 30 1C 06 09 2A 86 48 86 F7
                            0D 01 09 05 31 0F 17 0D 32 33 30 31 30 31 31 34
                            30 39 33 39 5A 30 2F 06 09 2A 86 48 86 F7 0D 01
                            09 04 31 22 04 20 5D F6 E0 E2 76 13 59 D3 0A 82
                            75 05 8E 29 9F CC 03 81 53 45 45 F5 5C F4 3E 41
                            98 3F 5D 4C 94 56 30 79 06 09 2A 86 48 86 F7 0D
                            01 09 0F 31 6C 30 6A 30 0B 06 09 60 86 48 01 65
                            03 04 01 2A 30 0B 06 09 60 86 48 01 65 03 04 01
                            16 30 0B 06 09 60 86 48 01 65 03 04 01 02 30 0A
                            06 08 2A 86 48 86 F7 0D 03 07 30 0E 06 08 2A 86
                            48 86 F7 0D 03 02 02 02 00 80 30 0D 06 08 2A 86
                            48 86 F7 0D 03 02 02 01 40 30 07 06 05 2B 0E 03
                            02 07 30 0D 06 08 2A 86 48 86 F7 0D 03 02 02 01
                            28 30 0D 06 09 2A 86 48 86 F7 0D 01 01 01 05 00
                            04 82 01 00 88 24 4E EF F7 54 58 C4 E2 28 E1 68
                            B0 20 11 3D 24 33 6B 87 BA 81 02 A8 31 15 5F 25
                            6A 6D D1 50 F2 15 4B F8 44 34 C9 EC FE 14 FB DD
                            0E 50 52 75 88 5A 12 72 67 1C 3B E0 76 C6 02 58
                            85 07 9D A9 F4 CF 7E 05 72 15 AD 9C 21 38 30 47
                            A7 D0 01 7C FC 64 4D 94 9C 77 60 C6 DA 80 12 86
                            0B E5 87 CD B1 A2 43 9E D1 B0 69 1C 84 65 F8 5F
                            39 BE 3B 59 3C D9 E7 61 E0 A9 04 3F 16 3D C6 B9
                            FB 9E 34 F2 08 8C 2A C5 41 1E 7D 08 91 EB F0 AE
                            92 D2 A0 98 AF 49 EB AE 43 83 E0 26 1F 98 24 88
                            72 F3 19 18 65 4B C1 99 3B A9 9F C9 70 A8 2F 97
                            57 79 5B 5A 19 34 F4 9A 6D E0 AB 09 7E EE C5 41
                            FB F0 B1 32 2C C5 35 4F 1B 53 57 1A 35 47 E2 12
                            D6 B0 C4 0E 5C F1 EE F2 98 F1 09 A8 38 9D 1A EC
                            56 B6 31 25 86 05 FD 49 AF B0 D6 37 78 20 D0 3F
                            A0 BF 82 9E 65 B3 26 D3 91 90 F0 F2 F8 59 0D E3
                            6F 6E 54 CD
0070B PAYLOAD               ..

0070D DATA DESCRIPTOR       08074B50 (134695760)
00711 CRC                   00000000 (0)
00715 Compressed Length     0000000000000002 (2)
0071D Uncompressed Length   0000000000000000 (0)

00725 LOCAL HEADER #2       04034B50 (67324752)
00729 Extract Zip Spec      14 (20) '2.0'
0072A Extract OS            00 (0) 'MS-DOS'
0072B General Purpose Flag  080A (2058)
      [Bits 1-2]            1 'Maximum Compression'
      [Bit  3]              1 'Streamed'
      [Bit 11]              1 'Language Encoding'
0072D Compression Method    0008 (8) 'Deflated'
0072F Last Mod Time         56216F52 (1445031762) 'Sun Jan  1 13:58:36 2023'
00733 CRC                   00000000 (0)
00737 Compressed Length     00000000 (0)
0073B Uncompressed Length   00020000 (131072)
0073F Filename Length       000A (10)
00741 Extra Length          06D0 (1744)
00743 Filename              'random.bin'
0074D Extra ID #1           1A51 (6737) 'Minizip Hash'
0074F   Length              0024 (36)
00751   Algorithm           0017 (23) 'SHA256'
00753   Digest Size         0020 (32)
00755   Digest              22 58 23 8A CE 2C FC 25 D5 09 AB 19 9D 2C E9 84
                            44 D3 A1 D1 4D 85 C4 7E DE 68 2C FF 94 9E F3 38
00775 Extra ID #2           10C5 (4293) 'Minizip CMS Signature'
00777   Length              06A4 (1700)
00779   Signature           30 82 06 A0 06 09 2A 86 48 86 F7 0D 01 07 02 A0
                            82 06 91 30 82 06 8D 02 01 01 31 0D 30 0B 06 09
                            60 86 48 01 65 03 04 02 01 30 2F 06 09 2A 86 48
                            86 F7 0D 01 07 01 A0 22 04 20 22 58 23 8A CE 2C
                            FC 25 D5 09 AB 19 9D 2C E9 84 44 D3 A1 D1 4D 85
                            C4 7E DE 68 2C FF 94 9E F3 38 A0 82 03 AB 30 82
                            03 A7 30 82 02 8F A0 03 02 01 02 02 01 01 30 0D
                            06 09 2A 86 48 86 F7 0D 01 01 0B 05 00 30 81 80
                            31 10 30 0E 06 03 55 04 03 0C 07 4D 69 6E 69 7A
                            69 70 31 10 30 0E 06 03 55 04 0A 0C 07 4D 69 6E
                            69 7A 69 70 31 0B 30 09 06 03 55 04 0B 0C 02 4D
                            5A 31 0B 30 09 06 03 55 04 08 0C 02 41 5A 31 0B
                            30 09 06 03 55 04 06 13 02 55 53 31 10 30 0E 06
                            03 55 04 07 0C 07 50 68 6F 65 6E 69 78 31 21 30
                            1F 06 09 2A 86 48 86 F7 0D 01 09 01 16 12 6E 61
                            74 68 61 6E 40 6E 61 74 68 61 6E 6D 2E 63 6F 6D
                            30 1E 17 0D 31 39 31 31 31 31 30 32 32 36 30 31
                            5A 17 0D 33 38 30 32 31 30 30 32 32 36 30 31 5A
                            30 81 80 31 10 30 0E 06 03 55 04 03 0C 07 4D 69
                            6E 69 7A 69 70 31 10 30 0E 06 03 55 04 0A 0C 07
                            4D 69 6E 69 7A 69 70 31 0B 30 09 06 03 55 04 0B
                            0C 02 4D 5A 31 0B 30 09 06 03 55 04 08 0C 02 41
                            5A 31 0B 30 09 06 03 55 04 06 13 02 55 53 31 10
                            30 0E 06 03 55 04 07 0C 07 50 68 6F 65 6E 69 78
                            31 21 30 1F 06 09 2A 86 48 86 F7 0D 01 09 01 16
                            12 6E 61 74 68 61 6E 40 6E 61 74 68 61 6E 6D 2E
                            63 6F 6D 30 82 01 22 30 0D 06 09 2A 86 48 86 F7
                            0D 01 01 01 05 00 03 82 01 0F 00 30 82 01 0A 02
                            82 01 01 00 E4 67 1E 97 E3 28 DC 91 2A 25 68 CE
                            24 C3 5D 00 2B E4 16 DA 8E ED F7 BE 15 BA 45 52
                            B5 98 16 C3 5A 60 D0 52 04 5A FE 21 E5 A4 93 31
                            78 73 A6 01 93 9E CD EB BE 87 D5 56 27 D0 A8 D7
                            33 0E ED AA 09 7D BB C7 93 B8 98 4C 50 58 EE 51
                            69 5E 2E 71 74 CB D2 9E 09 8D AB 6F 83 1A 70 32
                            97 0B 8F 8E 6C 05 99 B1 5F B4 C2 FF 16 4F EE E4
                            FF F4 28 1E 25 C4 B6 34 9F 9A 54 A6 93 BA B1 4E
                            09 E9 2D 4D 8E 53 5C D7 DC D6 D5 FC B6 05 73 22
                            6D 3C 44 17 3F 52 31 60 A9 28 FC B6 D8 96 C1 87
                            32 16 87 37 D0 42 55 47 B1 09 B1 F3 26 91 2C C2
                            D8 18 DB AB 8D 9F 20 25 C3 9B 31 0A 3B 6A D3 7A
                            20 96 FB AD 44 A0 4E DD B1 2D C7 8B F9 A1 46 8D
                            BF 1D 35 AA 76 7D BF CA B1 63 54 47 E3 8C B3 C1
                            95 12 31 E8 3A B8 2E E7 1A 86 37 61 95 01 EA 1C
                            70 FC 83 C9 25 64 D0 1D 27 A8 9D 5B C8 30 68 1E
                            58 BE 7F 03 02 03 01 00 01 A3 2A 30 28 30 0E 06
                            03 55 1D 0F 01 01 FF 04 04 03 02 02 84 30 16 06
                            03 55 1D 25 01 01 FF 04 0C 30 0A 06 08 2B 06 01
                            05 05 07 03 03 30 0D 06 09 2A 86 48 86 F7 0D 01
                            01 0B 05 00 03 82 01 01 00 56 70 B4 F8 86 44 84
                            D5 CB 13 8F 62 21 46 F4 68 29 7E 5E 3B 3E 20 FC
                            62 F8 05 B3 2C 06 62 18 75 33 5C 01 3F CC 34 5E
                            60 22 07 99 44 72 54 89 A6 A9 AD 30 1A C0 6E 8A
                            99 B7 FD 71 45 12 CF 4E 1B 58 C8 AD 12 B2 66 60
                            03 C2 F4 F9 99 84 DE 74 D5 8C C8 B2 BF 1C 86 4B
                            39 F8 C0 84 D1 9D 0F E9 24 E0 A2 BD E1 C4 66 79
                            45 2B A1 EA F0 B3 2A 38 08 38 D3 17 39 EB EE 04
                            F0 88 B4 96 66 28 8A CE A3 01 C7 FD 5B D3 61 45
                            5C 9F 76 6A 05 13 D5 38 77 85 B8 1B A0 47 2C 3C
                            FD 1A A9 53 F4 A9 3D BD 4F BA 9A 3D 33 B2 95 54
                            DC ED A5 73 33 7D 55 76 B7 0D B2 35 08 99 EC 64
                            97 28 5E B9 BA 40 DF 43 CB 7B FB 87 16 6C 83 66
                            2A 99 03 C8 0E 41 83 99 5C 41 3D C3 A6 32 A6 89
                            44 D8 1A DA 8A 53 5D E6 FC E8 1B 11 2F 60 C9 A9
                            A9 7D CB 0D 8A 8A D3 88 AC 3A 26 74 AE C2 3B FA
                            54 06 42 F8 56 65 CF 4D DB 31 82 02 97 30 82 02
                            93 02 01 01 30 81 86 30 81 80 31 10 30 0E 06 03
                            55 04 03 0C 07 4D 69 6E 69 7A 69 70 31 10 30 0E
                            06 03 55 04 0A 0C 07 4D 69 6E 69 7A 69 70 31 0B
                            30 09 06 03 55 04 0B 0C 02 4D 5A 31 0B 30 09 06
                            03 55 04 08 0C 02 41 5A 31 0B 30 09 06 03 55 04
                            06 13 02 55 53 31 10 30 0E 06 03 55 04 07 0C 07
                            50 68 6F 65 6E 69 78 31 21 30 1F 06 09 2A 86 48
                            86 F7 0D 01 09 01 16 12 6E 61 74 68 61 6E 40 6E
                            61 74 68 61 6E 6D 2E 63 6F 6D 02 01 01 30 0B 06
                            09 60 86 48 01 65 03 04 02 01 A0 81 E4 30 18 06
                            09 2A 86 48 86 F7 0D 01 09 03 31 0B 06 09 2A 86
                            48 86 F7 0D 01 07 01 30 1C 06 09 2A 86 48 86 F7
                            0D 01 09 05 31 0F 17 0D 32 33 30 31 30 31 31 34
                            30 39 33 39 5A 30 2F 06 09 2A 86 48 86 F7 0D 01
                            09 04 31 22 04 20 03 C5 23 A3 3B 01 7C 3A 31 AA
                            8B 52 28 1B 7F 3F A4 0D 17 D0 5B BC 1C 33 69 7F
                            93 55 37 C1 BC 63 30 79 06 09 2A 86 48 86 F7 0D
                            01 09 0F 31 6C 30 6A 30 0B 06 09 60 86 48 01 65
                            03 04 01 2A 30 0B 06 09 60 86 48 01 65 03 04 01
                            16 30 0B 06 09 60 86 48 01 65 03 04 01 02 30 0A
                            06 08 2A 86 48 86 F7 0D 03 07 30 0E 06 08 2A 86
                            48 86 F7 0D 03 02 02 02 00 80 30 0D 06 08 2A 86
                            48 86 F7 0D 03 02 02 01 40 30 07 06 05 2B 0E 03
                            02 07 30 0D 06 08 2A 86 48 86 F7 0D 03 02 02 01
                            28 30 0D 06 09 2A 86 48 86 F7 0D 01 01 01 05 00
                            04 82 01 00 2F 2F 80 D5 AE B7 FB 59 65 95 87 99
                            01 F8 25 BB 59 B4 6A E3 D5 12 A8 A6 56 3C 89 2A
                            14 88 E1 01 B7 33 6F 5A A8 D7 0F F6 40 88 6D 3D
                            82 A7 5C E6 0D 19 3F CD BD 7F 0A 3C B1 08 A1 92
                            00 EA F0 D3 0E 16 CF CF 4E 85 91 57 E3 29 87 06
                            E5 CB A4 C6 CE 09 E1 6C A4 D2 1F 6C 13 30 1D 67
                            F0 F1 01 CB E6 34 7C 22 B4 8F 90 20 0B 3E FE 86
                            04 F2 A5 B8 7E 15 46 08 50 E8 67 9B 0E 27 D3 D5
                            CE 83 8D FA 7F 60 7F C2 0B 95 C2 CE A0 69 67 05
                            CB 9C EA F2 51 8D A2 E3 2F FA 93 17 DF 1F 33 D3
                            E3 AD EC 35 36 A9 C9 54 70 F1 7B 02 0D 0C B6 1D
                            2A 5D DA 03 78 85 5E 74 C8 A3 E1 2C EA E3 0A 3A
                            F0 D7 76 09 A0 A0 1E 4D AB E2 3C F4 67 E1 D1 11
                            3D 7A 37 7E 1E 43 77 9C D5 CE 4E 18 7D 36 B2 C1
                            C7 4B 2D 34 35 F4 4B 7B CD 3F DC 9F 7E BE F1 67
                            A7 19 B5 C3 F7 29 5B 7A 70 49 A8 66 25 64 1E C5
                            3C D0 73 C6
00E1D PAYLOAD

20E45 DATA DESCRIPTOR       08074B50 (134695760)
20E49 CRC                   A85D40DC (2824683740)
20E4D Compressed Length     00020028 (131112)
20E51 Uncompressed Length   00020000 (131072)

20E55 LOCAL HEADER #3       04034B50 (67324752)
20E59 Extract Zip Spec      14 (20) '2.0'
20E5A Extract OS            00 (0) 'MS-DOS'
20E5B General Purpose Flag  080A (2058)
      [Bits 1-2]            1 'Maximum Compression'
      [Bit  3]              1 'Streamed'
      [Bit 11]              1 'Language Encoding'
20E5D Compression Method    0008 (8) 'Deflated'
20E5F Last Mod Time         56216F52 (1445031762) 'Sun Jan  1 13:58:36 2023'
20E63 CRC                   00000000 (0)
20E67 Compressed Length     00000000 (0)
20E6B Uncompressed Length   00018000 (98304)
20E6F Filename Length       000B (11)
20E71 Extra Length          06D0 (1744)
20E73 Filename              'uniform.bin'
20E7E Extra ID #1           1A51 (6737) 'Minizip Hash'
20E80   Length              0024 (36)
20E82   Algorithm           0017 (23) 'SHA256'
20E84   Digest Size         0020 (32)
20E86   Digest              38 05 EB 7D BC 09 40 49 24 AD 77 BB 3A AC 04 FA
                            CD 9D A2 AD 49 04 45 65 ED 9D 62 61 F6 77 6B 85
20EA6 Extra ID #2           10C5 (4293) 'Minizip CMS Signature'
20EA8   Length              06A4 (1700)
20EAA   Signature           30 82 06 A0 06 09 2A 86 48 86 F7 0D 01 07 02 A0
                            82 06 91 30 82 06 8D 02 01 01 31 0D 30 0B 06 09
                            60 86 48 01 65 03 04 02 01 30 2F 06 09 2A 86 48
                            86 F7 0D 01 07 01 A0 22 04 20 38 05 EB 7D BC 09
                            40 49 24 AD 77 BB 3A AC 04 FA CD 9D A2 AD 49 04
                            45 65 ED 9D 62 61 F6 77 6B 85 A0 82 03 AB 30 82
                            03 A7 30 82 02 8F A0 03 02 01 02 02 01 01 30 0D
                            06 09 2A 86 48 86 F7 0D 01 01 0B 05 00 30 81 80
                            31 10 30 0E 06 03 55 04 03 0C 07 4D 69 6E 69 7A
                            69 70 31 10 30 0E 06 03 55 04 0A 0C 07 4D 69 6E
                            69 7A 69 70 31 0B 30 09 06 03 55 04 0B 0C 02 4D
                            5A 31 0B 30 09 06 03 55 04 08 0C 02 41 5A 31 0B
                            30 09 06 03 55 04 06 13 02 55 53 31 10 30 0E 06
                            03 55 04 07 0C 07 50 68 6F 65 6E 69 78 31 21 30
                            1F 06 09 2A 86 48 86 F7 0D 01 09 01 16 12 6E 61
                            74 68 61 6E 40 6E 61 74 68 61 6E 6D 2E 63 6F 6D
                            30 1E 17 0D 31 39 31 31 31 31 30 32 32 36 30 31
                            5A 17 0D 33 38 30 32 31 30 30 32 32 36 30 31 5A
                            30 81 80 31 10 30 0E 06 03 55 04 03 0C 07 4D 69
                            6E 69 7A 69 70 31 10 30 0E 06 03 55 04 0A 0C 07
                            4D 69 6E 69 7A 69 70 31 0B 30 09 06 03 55 04 0B
                            0C 02 4D 5A 31 0B 30 09 06 03 55 04 08 0C 02 41
                            5A 31 0B 30 09 06 03 55 04 06 13 02 55 53 31 10
                            30 0E 06 03 55 04 07 0C 07 50 68 6F 65 6E 69 78
                            31 21 30 1F 06 09 2A 86 48 86 F7 0D 01 09 01 16
                            12 6E 61 74 68 61 6E 40 6E 61 74 68 61 6E 6D 2E
                            63 6F 6D 30 82 01 22 30 0D 06 09 2A 86 48 86 F7
                            0D 01 01 01 05 00 03 82 01 0F 00 30 82 01 0A 02
                            82 01 01 00 E4 67 1E 97 E3 28 DC 91 2A 25 68 CE
                            24 C3 5D 00 2B E4 16 DA 8E ED F7 BE 15 BA 45 52
                            B5 98 16 C3 5A 60 D0 52 04 5A FE 21 E5 A4 93 31
                            78 73 A6 01 93 9E CD EB BE 87 D5 56 27 D0 A8 D7
                            33 0E ED AA 09 7D BB C7 93 B8 98 4C 50 58 EE 51
                            69 5E 2E 71 74 CB D2 9E 09 8D AB 6F 83 1A 70 32
                            97 0B 8F 8E 6C 05 99 B1 5F B4 C2 FF 16 4F EE E4
                            FF F4 28 1E 25 C4 B6 34 9F 9A 54 A6 93 BA B1 4E
                            09 E9 2D 4D 8E 53 5C D7 DC D6 D5 FC B6 05 73 22
                            6D 3C 44 17 3F 52 31 60 A9 28 FC B6 D8 96 C1 87
                            32 16 87 37 D0 42 55 47 B1 09 B1 F3 26 91 2C C2
                            D8 18 DB AB 8D 9F 20 25 C3 9B 31 0A 3B 6A D3 7A
                            20 96 FB AD 44 A0 4E DD B1 2D C7 8B F9 A1 46 8D
                            BF 1D 35 AA 76 7D BF CA B1 63 54 47 E3 8C B3 C1
                            95 12 31 E8 3A B8 2E E7 1A 86 37 61 95 01 EA 1C
                            70 FC 83 C9 25 64 D0 1D 27 A8 9D 5B C8 30 68 1E
                            58 BE 7F 03 02 03 01 00 01 A3 2A 30 28 30 0E 06
                            03 55 1D 0F 01 01 FF 04 04 03 02 02 84 30 16 06
                            03 55 1D 25 01 01 FF 04 0C 30 0A 06 08 2B 06 01
                            05 05 07 03 03 30 0D 06 09 2A 86 48 86 F7 0D 01
                            01 0B 05 00 03 82 01 01 00 56 70 B4 F8 86 44 84
                            D5 CB 13 8F 62 21 46 F4 68 29 7E 5E 3B 3E 20 FC
                            62 F8 05 B3 2C 06 62 18 75 33 5C 01 3F CC 34 5E
                            60 22 07 99 44 72 54 89 A6 A9 AD 30 1A C0 6E 8A
                            99 B7 FD 71 45 12 CF 4E 1B 58 C8 AD 12 B2 66 60
                            03 C2 F4 F9 99 84 DE 74 D5 8C C8 B2 BF 1C 86 4B
                            39 F8 C0 84 D1 9D 0F E9 24 E0 A2 BD E1 C4 66 79
                            45 2B A1 EA F0 B3 2A 38 08 38 D3 17 39 EB EE 04
                            F0 88 B4 96 66 28 8A CE A3 01 C7 FD 5B D3 61 45
                            5C 9F 76 6A 05 13 D5 38 77 85 B8 1B A0 47 2C 3C
                            FD 1A A9 53 F4 A9 3D BD 4F BA 9A 3D 33 B2 95 54
                            DC ED A5 73 33 7D 55 76 B7 0D B2 35 08 99 EC 64
                            97 28 5E B9 BA 40 DF 43 CB 7B FB 87 16 6C 83 66
                            2A 99 03 C8 0E 41 83 99 5C 41 3D C3 A6 32 A6 89
                            44 D8 1A DA 8A 53 5D E6 FC E8 1B 11 2F 60 C9 A9
                            A9 7D CB 0D 8A 8A D3 88 AC 3A 26 74 AE C2 3B FA
                            54 06 42 F8 56 65 CF 4D DB 31 82 02 97 30 82 02
                            93 02 01 01 30 81 86 30 81 80 31 10 30 0E 06 03
                            55 04 03 0C 07 4D 69 6E 69 7A 69 70 31 10 30 0E
                            06 03 55 04 0A 0C 07 4D 69 6E 69 7A 69 70 31 0B
                            30 09 06 03 55 04 0B 0C 02 4D 5A 31 0B 30 09 06
                            03 55 04 08 0C 02 41 5A 31 0B 30 09 06 03 55 04
                            06 13 02 55 53 31 10 30 0E 06 03 55 04 07 0C 07
                            50 68 6F 65 6E 69 78 31 21 30 1F 06 09 2A 86 48
                            86 F7 0D 01 09 01 16 12 6E 61 74 68 61 6E 40 6E
                            61 74 68 61 6E 6D 2E 63 6F 6D 02 01 01 30 0B 06
                            09 60 86 48 01 65 03 04 02 01 A0 81 E4 30 18 06
                            09 2A 86 48 86 F7 0D 01 09 03 31 0B 06 09 2A 86
                            48 86 F7 0D 01 07 01 30 1C 06 09 2A 86 48 86 F7
                            0D 01 09 05 31 0F 17 0D 32 33 30 31 30 31 31 34
                            30 39 33 39 5A 30 2F 06 09 2A 86 48 86 F7 0D 01
                            09 04 31 22 04 20 93 FF B5 DF C2 AA 3B 1D F4 EE
                            9B 96 BE B4 B6 78 DE 10 31 9A 3E 28 F7 D1 33 FF
                            51 CF CF C3 0C AD 30 79 06 09 2A 86 48 86 F7 0D
                            01 09 0F 31 6C 30 6A 30 0B 06 09 60 86 48 01 65
                            03 04 01 2A 30 0B 06 09 60 86 48 01 65 03 04 01
                            16 30 0B 06 09 60 86 48 01 65 03 04 01 02 30 0A
                            06 08 2A 86 48 86 F7 0D 03 07 30 0E 06 08 2A 86
                            48 86 F7 0D 03 02 02 02 00 80 30 0D 06 08 2A 86
                            48 86 F7 0D 03 02 02 01 40 30 07 06 05 2B 0E 03
                            02 07 30 0D 06 08 2A 86 48 86 F7 0D 03 02 02 01
                            28 30 0D 06 09 2A 86 48 86 F7 0D 01 01 01 05 00
                            04 82 01 00 0C C7 07 A5 2E 17 34 DE D7 C1 3C 00
                            F5 30 3D ED C5 E2 46 E3 2E 9D 4B 0A B6 A4 0A AA
                            18 B3 51 47 5C 82 B9 FA 56 88 E5 28 2B 54 C5 53
                            8D 03 B3 30 61 49 EB 87 75 9F 3C 24 49 E6 28 DE
                            E6 AA F8 BD 87 F1 79 97 F6 B9 02 DC A0 14 CF 39
                            C3 AF 57 56 C7 91 39 CE 12 AA 74 8D 87 C7 13 E9
                            61 00 0C 78 E7 F8 21 DE 73 AE 07 0C BD DB 35 94
                            FE 93 63 9C 5D DB 51 D4 BA 47 D6 42 2B EB 88 4D
                            A1 1C F6 1E C4 AC BE 52 02 61 49 27 D4 65 8C B2
                            BB D1 9E D4 79 B9 7E B6 E1 62 25 77 92 70 76 77
                            46 26 19 41 FA 26 65 8E 68 4C 8D CF 08 01 61 55
                            E3 CB 0A ED ED C7 EC 23 8B 03 DF 00 6A 3F AD FC
                            22 2D D2 82 C6 B5 ED 0B 43 8E 25 63 4C CF D0 50
                            7B EB 29 8E 22 4F B7 44 31 86 22 4F CA D0 18 95
                            39 30 B6 1C 65 F2 C5 78 54 08 07 24 79 42 18 31
                            AB 13 FA 78 70 47 47 E4 5F E3 8C 03 93 08 7C 43
                            00 36 29 5E
2154E PAYLOAD               .........*.....(...............................................................................................n

215BE DATA DESCRIPTOR       08074B50 (134695760)
215C2 CRC                   0F79DE80 (259645056)
215C6 Compressed Length     00000070 (112)
215CA Uncompressed Length   00018000 (98304)

215CE LOCAL HEADER #4       04034B50 (67324752)
215D2 Extract Zip Spec      14 (20) '2.0'
215D3 Extract OS            00 (0) 'MS-DOS'
215D4 General Purpose Flag  080A (2058)
      [Bits 1-2]            1 'Maximum Compression'
      [Bit  3]              1 'Streamed'
      [Bit 11]              1 'Language Encoding'
215D6 Compression Method    0008 (8) 'Deflated'
215D8 Last Mod Time         56216F52 (1445031762) 'Sun Jan  1 13:58:36 2023'
215DC CRC                   00000000 (0)
215E0 Compressed Length     00000000 (0)
215E4 Uncompressed Length   000009E0 (2528)
215E8 Filename Length       000C (12)
215EA Extra Length          06D0 (1744)
215EC Filename              'standalone.c'
215F8 Extra ID #1           1A51 (6737) 'Minizip Hash'
215FA   Length              0024 (36)
215FC   Algorithm           0017 (23) 'SHA256'
215FE   Digest Size         0020 (32)
21600   Digest              9E 11 33 9C 89 56 8F 0B 41 82 78 3D F4 42 FA 34
                            BF 00 B2 1C 3B FC 2B E7 D4 A9 97 91 9F 74 16 FB
21620 Extra ID #2           10C5 (4293) 'Minizip CMS Signature'
21622   Length              06A4 (1700)
21624   Signature           30 82 06 A0 06 09 2A 86 48 86 F7 0D 01 07 02 A0
                            82 06 91 30 82 06 8D 02 01 01 31 0D 30 0B 06 09
                            60 86 48 01 65 03 04 02 01 30 2F 06 09 2A 86 48
                            86 F7 0D 01 07 01 A0 22 04 20 9E 11 33 9C 89 56
                            8F 0B 41 82 78 3D F4 42 FA 34 BF 00 B2 1C 3B FC
                            2B E7 D4 A9 97 91 9F 74 16 FB A0 82 03 AB 30 82
                            03 A7 30 82 02 8F A0 03 02 01 02 02 01 01 30 0D
                            06 09 2A 86 48 86 F7 0D 01 01 0B 05 00 30 81 80
                            31 10 30 0E 06 03 55 04 03 0C 07 4D 69 6E 69 7A
                            69 70 31 10 30 0E 06 03 55 04 0A 0C 07 4D 69 6E
                            69 7A 69 70 31 0B 30 09 06 03 55 04 0B 0C 02 4D
                            5A 31 0B 30 09 06 03 55 04 08 0C 02 41 5A 31 0B
                            30 09 06 03 55 04 06 13 02 55 53 31 10 30 0E 06
                            03 55 04 07 0C 07 50 68 6F 65 6E 69 78 31 21 30
                            1F 06 09 2A 86 48 86 F7 0D 01 09 01 16 12 6E 61
                            74 68 61 6E 40 6E 61 74 68 61 6E 6D 2E 63 6F 6D
                            30 1E 17 0D 31 39 31 31 31 31 30 32 32 36 30 31
                            5A 17 0D 33 38 30 32 31 30 30 32 32 36 30 31 5A
                            30 81 80 31 10 30 0E 06 03 55 04 03 0C 07 4D 69
                            6E 69 7A 69 70 31 10 30 0E 06 03 55 04 0A 0C 07
                            4D 69 6E 69 7A 69 70 31 0B 30 09 06 03 55 04 0B
                            0C 02 4D 5A 31 0B 30 09 06 03 55 04 08 0C 02 41
                            5A 31 0B 30 09 06 03 55 04 06 13 02 55 53 31 10
                            30 0E 06 03 55 04 07 0C 07 50 68 6F 65 6E 69 78
                            31 21 30 1F 06 09 2A 86 48 86 F7 0D 01 09 01 16
                            12 6E 61 74 68 61 6E 40 6E 61 74 68 61 6E 6D 2E
                            63 6F 6D 30 82 01 22 30 0D 06 09 2A 86 48 86 F7
                            0D 01 01 01 05 00 03 82 01 0F 00 30 82 01 0A 02
                            82 01 01 00 E4 67 1E 97 E3 28 DC 91 2A 25 68 CE
                            24 C3 5D 00 2B E4 16 DA 8E ED F7 BE 15 BA 45 52
                            B5 98 16 C3 5A 60 D0 52 04 5A FE 21 E5 A4 93 31
                            78 73 A6 01 93 9E CD EB BE 87 D5 56 27 D0 A8 D7
                            33 0E ED AA 09 7D BB C7 93 B8 98 4C 50 58 EE 51
                            69 5E 2E 71 74 CB D2 9E 09 8D AB 6F 83 1A 70 32
                            97 0B 8F 8E 6C 05 99 B1 5F B4 C2 FF 16 4F EE E4
                            FF F4 28 1E 25 C4 B6 34 9F 9A 54 A6 93 BA B1 4E
                            09 E9 2D 4D 8E 53 5C D7 DC D6 D5 FC B6 05 73 22
                            6D 3C 44 17 3F 52 31 60 A9 28 FC B6 D8 96 C1 87
                            32 16 87 37 D0 42 55 47 B1 09 B1 F3 26 91 2C C2
                            D8 18 DB AB 8D 9F 20 25 C3 9B 31 0A 3B 6A D3 7A
                            20 96 FB AD 44 A0 4E DD B1 2D C7 8B F9 A1 46 8D
                            BF 1D 35 AA 76 7D BF CA B1 63 54 47 E3 8C B3 C1
                            95 12 31 E8 3A B8 2E E7 1A 86 37 61 95 01 EA 1C
                            70 FC 83 C9 25 64 D0 1D 27 A8 9D 5B C8 30 68 1E
                            58 BE 7F 03 02 03 01 00 01 A3 2A 30 28 30 0E 06
                            03 55 1D 0F 01 01 FF 04 04 03 02 02 84 30 16 06
                            03 55 1D 25 01 01 FF 04 0C 30 0A 06 08 2B 06 01
                            05 05 07 03 03 30 0D 06 09 2A 86 48 86 F7 0D 01
                            01 0B 05 00 03 82 01 01 00 56 70 B4 F8 86 44 84
                            D5 CB 13 8F 62 21 46 F4 68 29 7E 5E 3B 3E 20 FC
                            62 F8 05 B3 2C 06 62 18 75 33 5C 01 3F CC 34 5E
                            60 22 07 99 44 72 54 89 A6 A9 AD 30 1A C0 6E 8A
                            99 B7 FD 71 45 12 CF 4E 1B 58 C8 AD 12 B2 66 60
                            03 C2 F4 F9 99 84 DE 74 D5 8C C8 B2 BF 1C 86 4B
                            39 F8 C0 84 D1 9D 0F E9 24 E0 A2 BD E1 C4 66 79
                            45 2B A1 EA F0 B3 2A 38 08 38 D3 17 39 EB EE 04
                            F0 88 B4 96 66 28 8A CE A3 01 C7 FD 5B D3 61 45
                            5C 9F 76 6A 05 13 D5 38 77 85 B8 1B A0 47 2C 3C
                            FD 1A A9 53 F4 A9 3D BD 4F BA 9A 3D 33 B2 95 54
                            DC ED A5 73 33 7D 55 76 B7 0D B2 35 08 99 EC 64
                            97 28 5E B9 BA 40 DF 43 CB 7B FB 87 16 6C 83 66
                            2A 99 03 C8 0E 41 83 99 5C 41 3D C3 A6 32 A6 89
                            44 D8 1A DA 8A 53 5D E6 FC E8 1B 11 2F 60 C9 A9
                            A9 7D CB 0D 8A 8A D3 88 AC 3A 26 74 AE C2 3B FA
                            54 06 42 F8 56 65 CF 4D DB 31 82 02 97 30 82 02
                            93 02 01 01 30 81 86 30 81 80 31 10 30 0E 06 03
                            55 04 03 0C 07 4D 69 6E 69 7A 69 70 31 10 30 0E
                            06 03 55 04 0A 0C 07 4D 69 6E 69 7A 69 70 31 0B
                            30 09 06 03 55 04 0B 0C 02 4D 5A 31 0B 30 09 06
                            03 55 04 08 0C 02 41 5A 31 0B 30 09 06 03 55 04
                            06 13 02 55 53 31 10 30 0E 06 03 55 04 07 0C 07
                            50 68 6F 65 6E 69 78 31 21 30 1F 06 09 2A 86 48
                            86 F7 0D 01 09 01 16 12 6E 61 74 68 61 6E 40 6E
                            61 74 68 61 6E 6D 2E 63 6F 6D 02 01 01 30 0B 06
                            09 60 86 48 01 65 03 04 02 01 A0 81 E4 30 18 06
                            09 2A 86 48 86 F7 0D 01 09 03 31 0B 06 09 2A 86
                            48 86 F7 0D 01 07 01 30 1C 06 09 2A 86 48 86 F7
                            0D 01 09 05 31 0F 17 0D 32 33 30 31 30 31 31 34
                            30 39 33 39 5A 30 2F 06 09 2A 86 48 86 F7 0D 01
                            09 04 31 22 04 20 72 42 D0 72 8D F5 5E 99 77 67
                            3A 2C 5C 0D 33 43 7C 1E C3 55 80 44 11 50 93 DD
                            7C 1E 7F 89 D5 D4 30 79 06 09 2A 86 48 86 F7 0D
                            01 09 0F 31 6C 30 6A 30 0B 06 09 60 86 48 01 65
                            03 04 01 2A 30 0B 06 09 60 86 48 01 65 03 04 01
                            16 30 0B 06 09 60 86 48 01 65 03 04 01 02 30 0A
                            06 08 2A 86 48 86 F7 0D 03 07 30 0E 06 08 2A 86
                            48 86 F7 0D 03 02 02 02 00 80 30 0D 06 08 2A 86
                            48 86 F7 0D 03 02 02 01 40 30 07 06 05 2B 0E 03
                            02 07 30 0D 06 08 2A 86 48 86 F7 0D 03 02 02 01
                            28 30 0D 06 09 2A 86 48 86 F7 0D 01 01 01 05 00
                            04 82 01 00 9A 53 05 9A B7 6E 75 24 F3 5B A9 2E
                            CC B7 2F 4C 57 EC B3 37 36 2C 1A B0 C0 27 D3 1E
                            02 DA 82 82 34 AE 93 1A 8C 63 72 56 4F 72 90 3A
                            6B 1C BC 34 DD 16 E8 FC E2 9E 1E 3E DB 0C AE 82
                            ED F0 6A 13 28 19 3C D6 08 46 7C 4E 74 1D 65 10
                            2D E1 FE 3B 5D F1 87 7A 2A 20 71 E8 E0 78 94 CF
                            8B CD DB 29 43 43 78 F3 1D 08 D0 2D CF B4 46 EE
                            BA A9 31 CB B4 8C E3 2B BB CA FE C3 49 53 C4 73
                            AB 7F E1 17 D3 1C 4D E6 31 C7 13 30 37 34 5C 59
                            06 21 01 71 10 93 4C 17 1E 8B 0D 30 D3 A5 88 33
                            37 4A 22 F8 3F 03 EA 21 D2 69 1A 08 D1 35 F8 92
                            30 DE E9 8F B3 FF 7F 91 CB 86 79 F0 E7 65 F2 9B
                            0B 80 A6 FE C0 4A B8 AB D4 20 20 A9 F3 EA 0E CA
                            EA 2F 84 C0 8A 1C 64 8C D7 14 23 55 34 E6 07 0E
                            1B A5 88 DC D4 3F 08 86 7C DA DE 69 26 71 BA F1
                            2A E3 6E E9 80 96 2B B7 80 21 FF 3B 82 CB EC 28
                            01 BF 98 27
21CC8 PAYLOAD

22055 DATA DESCRIPTOR       08074B50 (134695760)
22059 CRC                   54F920F0 (1425613040)
2205D Compressed Length     0000038D (909)
22061 Uncompressed Length   000009E0 (2528)

22065 LOCAL HEADER #5       04034B50 (67324752)
22069 Extract Zip Spec      14 (20) '2.0'
2206A Extract OS            00 (0) 'MS-DOS'
2206B General Purpose Flag  080A (2058)
      [Bits 1-2]            1 'Maximum Compression'
      [Bit  3]              1 'Streamed'
      [Bit 11]              1 'Language Encoding'
2206D Compression Method    0008 (8) 'Deflated'
2206F Last Mod Time         56216F52 (1445031762) 'Sun Jan  1 13:58:36 2023'
22073 CRC                   00000000 (0)
22077 Compressed Length     00000000 (0)
2207B Uncompressed Length   00000D4E (3406)
2207F Filename Length       000C (12)
22081 Extra Length          06D0 (1744)
22083 Filename              'zip_fuzzer.c'
2208F Extra ID #1           1A51 (6737) 'Minizip Hash'
22091   Length              0024 (36)
22093   Algorithm           0017 (23) 'SHA256'
22095   Digest Size         0020 (32)
22097   Digest              37 BA 70 8E 34 F9 45 38 91 E8 DA C5 8D 1D F5 89
                            42 90 3A 10 AF 48 38 36 00 A8 66 3F BF A9 C1 F2
220B7 Extra ID #2           10C5 (4293) 'Minizip CMS Signature'
220B9   Length              06A4 (1700)
220BB   Signature           30 82 06 A0 06 09 2A 86 48 86 F7 0D 01 07 02 A0
                            82 06 91 30 82 06 8D 02 01 01 31 0D 30 0B 06 09
                            60 86 48 01 65 03 04 02 01 30 2F 06 09 2A 86 48
                            86 F7 0D 01 07 01 A0 22 04 20 37 BA 70 8E 34 F9
                            45 38 91 E8 DA C5 8D 1D F5 89 42 90 3A 10 AF 48
                            38 36 00 A8 66 3F BF A9 C1 F2 A0 82 03 AB 30 82
                            03 A7 30 82 02 8F A0 03 02 01 02 02 01 01 30 0D
                            06 09 2A 86 48 86 F7 0D 01 01 0B 05 00 30 81 80
                            31 10 30 0E 06 03 55 04 03 0C 07 4D 69 6E 69 7A
                            69 70 31 10 30 0E 06 03 55 04 0A 0C 07 4D 69 6E
                            69 7A 69 70 31 0B 30 09 06 03 55 04 0B 0C 02 4D
                            5A 31 0B 30 09 06 03 55 04 08 0C 02 41 5A 31 0B
                            30 09 06 03 55 04 06 13 02 55 53 31 10 30 0E 06
                            03 55 04 07 0C 07 50 68 6F 65 6E 69 78 31 21 30
                            1F 06 09 2A 86 48 86 F7 0D 01 09 01 16 12 6E 61
                            74 68 61 6E 40 6E 61 74 68 61 6E 6D 2E 63 6F 6D
                            30 1E 17 0D 31 39 31 31 31 31 30 32 32 36 30 31
                            5A 17 0D 33 38 30 32 31 30 30 32 32 36 30 31 5A
                            30 81 80 31 10 30 0E 06 03 55 04 03 0C 07 4D 69
                            6E 69 7A 69 70 31 10 30 0E 06 03 55 04 0A 0C 07
                            4D 69 6E 69 7A 69 70 31 0B 30 09 06 03 55 04 0B
                            0C 02 4D 5A 31 0B 30 09 06 03 55 04 08 0C 02 41
                            5A 31 0B 30 09 06 03 55 04 06 13 02 55 53 31 10
                            30 0E 06 03 55 04 07 0C 07 50 68 6F 65 6E 69 78
                            31 21 30 1F 06 09 2A 86 48 86 F7 0D 01 09 01 16
                            12 6E 61 74 68 61 6E 40 6E 61 74 68 61 6E 6D 2E
                            63 6F 6D 30 82 01 22 30 0D 06 09 2A 86 48 86 F7
                            0D 01 01 01 05 00 03 82 01 0F 00 30 82 01 0A 02
                            82 01 01 00 E4 67 1E 97 E3 28 DC 91 2A 25 68 CE
                            24 C3 5D 00 2B E4 16 DA 8E ED F7 BE 15 BA 45 52
                            B5 98 16 C3 5A 60 D0 52 04 5A FE 21 E5 A4 93 31
                            78 73 A6 01 93 9E CD EB BE 87 D5 56 27 D0 A8 D7
                            33 0E ED AA 09 7D BB C7 93 B8 98 4C 50 58 EE 51
                            69 5E 2E 71 74 CB D2 9E 09 8D AB 6F 83 1A 70 32
                            97 0B 8F 8E 6C 05 99 B1 5F B4 C2 FF 16 4F EE E4
                            FF F4 28 1E 25 C4 B6 34 9F 9A 54 A6 93 BA B1 4E
                            09 E9 2D 4D 8E 53 5C D7 DC D6 D5 FC B6 05 73 22
                            6D 3C 44 17 3F 52 31 60 A9 28 FC B6 D8 96 C1 87
                            32 16 87 37 D0 42 55 47 B1 09 B1 F3 26 91 2C C2
                            D8 18 DB AB 8D 9F 20 25 C3 9B 31 0A 3B 6A D3 7A
                            20 96 FB AD 44 A0 4E DD B1 2D C7 8B F9 A1 46 8D
                            BF 1D 35 AA 76 7D BF CA B1 63 54 47 E3 8C B3 C1
                            95 12 31 E8 3A B8 2E E7 1A 86 37 61 95 01 EA 1C
                            70 FC 83 C9 25 64 D0 1D 27 A8 9D 5B C8 30 68 1E
                            58 BE 7F 03 02 03 01 00 01 A3 2A 30 28 30 0E 06
                            03 55 1D 0F 01 01 FF 04 04 03 02 02 84 30 16 06
                            03 55 1D 25 01 01 FF 04 0C 30 0A 06 08 2B 06 01
                            05 05 07 03 03 30 0D 06 09 2A 86 48 86 F7 0D 01
                            01 0B 05 00 03 82 01 01 00 56 70 B4 F8 86 44 84
                            D5 CB 13 8F 62 21 46 F4 68 29 7E 5E 3B 3E 20 FC
                            62 F8 05 B3 2C 06 62 18 75 33 5C 01 3F CC 34 5E
                            60 22 07 99 44 72 54 89 A6 A9 AD 30 1A C0 6E 8A
                            99 B7 FD 71 45 12 CF 4E 1B 58 C8 AD 12 B2 66 60
                            03 C2 F4 F9 99 84 DE 74 D5 8C C8 B2 BF 1C 86 4B
                            39 F8 C0 84 D1 9D 0F E9 24 E0 A2 BD E1 C4 66 79
                            45 2B A1 EA F0 B3 2A 38 08 38 D3 17 39 EB EE 04
                            F0 88 B4 96 66 28 8A CE A3 01 C7 FD 5B D3 61 45
                            5C 9F 76 6A 05 13 D5 38 77 85 B8 1B A0 47 2C 3C
                            FD 1A A9 53 F4 A9 3D BD 4F BA 9A 3D 33 B2 95 54
                            DC ED A5 73 33 7D 55 76 B7 0D B2 35 08 99 EC 64
                            97 28 5E B9 BA 40 DF 43 CB 7B FB 87 16 6C 83 66
                            2A 99 03 C8 0E 41 83 99 5C 41 3D C3 A6 32 A6 89
                            44 D8 1A DA 8A 53 5D E6 FC E8 1B 11 2F 60 C9 A9
                            A9 7D CB 0D 8A 8A D3 88 AC 3A 26 74 AE C2 3B FA
                            54 06 42 F8 56 65 CF 4D DB 31 82 02 97 30 82 02
                            93 02 01 01 30 81 86 30 81 80 31 10 30 0E 06 03
                            55 04 03 0C 07 4D 69 6E 69 7A 69 70 31 10 30 0E
                            06 03 55 04 0A 0C 07 4D 69 6E 69 7A 69 70 31 0B
                            30 09 06 03 55 04 0B 0C 02 4D 5A 31 0B 30 09 06
                            03 55 04 08 0C 02 41 5A 31 0B 30 09 06 03 55 04
                            06 13 02 55 53 31 10 30 0E 06 03 55 04 07 0C 07
                            50 68 6F 65 6E 69 78 31 21 30 1F 06 09 2A 86 48
                            86 F7 0D 01 09 01 16 12 6E 61 74 68 61 6E 40 6E
                            61 74 68 61 6E 6D 2E 63 6F 6D 02 01 01 30 0B 06
                            09 60 86 48 01 65 03 04 02 01 A0 81 E4 30 18 06
                            09 2A 86 48 86 F7 0D 01 09 03 31 0B 06 09 2A 86
                            48 86 F7 0D 01 07 01 30 1C 06 09 2A 86 48 86 F7
                            0D 01 09 05 31 0F 17 0D 32 33 30 31 30 31 31 34
                            30 39 33 39 5A 30 2F 06 09 2A 86 48 86 F7 0D 01
                            09 04 31 22 04 20 57 26 15 F9 5A 22 72 64 08 BC
                            4C 3D CA FD DF FA 2E FD 78 02 7C 86 B9 10 96 5E
                            38 3D 75 BA DA C4 30 79 06 09 2A 86 48 86 F7 0D
                            01 09 0F 31 6C 30 6A 30 0B 06 09 60 86 48 01 65
                            03 04 01 2A 30 0B 06 09 60 86 48 01 65 03 04 01
                            16 30 0B 06 09 60 86 48 01 65 03 04 01 02 30 0A
                            06 08 2A 86 48 86 F7 0D 03 07 30 0E 06 08 2A 86
                            48 86 F7 0D 03 02 02 02 00 80 30 0D 06 08 2A 86
                            48 86 F7 0D 03 02 02 01 40 30 07 06 05 2B 0E 03
                            02 07 30 0D 06 08 2A 86 48 86 F7 0D 03 02 02 01
                            28 30 0D 06 09 2A 86 48 86 F7 0D 01 01 01 05 00
                            04 82 01 00 73 95 DF 05 ED DD 17 13 76 8B 3C A5
                            2E 1B 25 C1 F5 B1 F4 9E AA 78 B9 84 12 F1 5F 3E
                            61 2E 1B B1 1D D8 4D ED 8A 84 19 71 F4 95 F1 6F
                            29 77 85 19 7C E3 83 A3 73 2D 0E 3D 31 B7 0C 12
                            A5 DA A9 BA 7D 7B C2 ED 4F 95 C4 01 33 20 C2 8A
                            5C C2 EA A6 88 90 9C 19 06 71 D1 F5 5C F5 D7 11
                            5A 60 8A 83 7B D7 E9 A7 5E 92 5A D9 03 13 89 2D
                            70 EB 66 78 D2 B6 F0 9D F9 73 E9 E7 C5 AE 03 22
                            B1 99 51 8A 4B 5F 8B 99 F5 9C 96 60 85 7A 90 15
                            A2 DB D7 57 66 B9 E3 55 16 76 80 9B 4F 25 F9 0E
                            DA 5F E5 05 B5 51 D2 76 45 64 DB F1 D3 80 C6 F2
                            2C C9 A3 21 00 90 03 A2 01 9B C3 5C EF F2 77 CE
                            8E 81 C8 D2 58 40 CE 5F 2B C4 45 D8 4F 3D D9 38
                            D1 FC 40 B8 22 46 D3 B5 11 8A BF 08 20 2A 34 99
                            27 25 25 92 00 9B 0E 78 8A FD 42 38 3E 1E EA 5B
                            27 69 5F BE D1 E2 E0 99 95 73 ED C9 82 46 D1 80
                            38 9D 91 73
2275F PAYLOAD

22B46 DATA DESCRIPTOR       08074B50 (134695760)
22B4A CRC                   C1588FFF (3243806719)
22B4E Compressed Length     000003E7 (999)
22B52 Uncompressed Length   00000D4E (3406)

22B56 LOCAL HEADER #6       04034B50 (67324752)
22B5A Extract Zip Spec      14 (20) '2.0'
22B5B Extract OS            00 (0) 'MS-DOS'
22B5C General Purpose Flag  080A (2058)
      [Bits 1-2]            1 'Maximum Compression'
      [Bit  3]              1 'Streamed'
      [Bit 11]              1 'Language Encoding'
22B5E Compression Method    0008 (8) 'Deflated'
22B60 Last Mod Time         56216F52 (1445031762) 'Sun Jan  1 13:58:36 2023'
22B64 CRC                   00000000 (0)
22B68 Compressed Length     00000000 (0)
22B6C Uncompressed Length   00000D07 (3335)
22B70 Filename Length       000E (14)
22B72 Extra Length          06D0 (1744)
22B74 Filename              'unzip_fuzzer.c'
22B82 Extra ID #1           1A51 (6737) 'Minizip Hash'
22B84   Length              0024 (36)
22B86   Algorithm           0017 (23) 'SHA256'
22B88   Digest Size         0020 (32)
22B8A   Digest              84 DF 07 03 89 75 66 67 BF 61 8C 73 52 C8 E7 83
                            53 83 C3 21 ED 84 77 06 C3 2F 88 CF B0 FA 6D 65
22BAA Extra ID #2           10C5 (4293) 'Minizip CMS Signature'
22BAC   Length              06A4 (1700)
22BAE   Signature           30 82 06 A0 06 09 2A 86 48 86 F7 0D 01 07 02 A0
                            82 06 91 30 82 06 8D 02 01 01 31 0D 30 0B 06 09
                            60 86 48 01 65 03 04 02 01 30 2F 06 09 2A 86 48
                            86 F7 0D 01 07 01 A0 22 04 20 84 DF 07 03 89 75
                            66 67 BF 61 8C 73 52 C8 E7 83 53 83 C3 21 ED 84
                            77 06 C3 2F 88 CF B0 FA 6D 65 A0 82 03 AB 30 82
                            03 A7 30 82 02 8F A0 03 02 01 02 02 01 01 30 0D
                            06 09 2A 86 48 86 F7 0D 01 01 0B 05 00 30 81 80
                            31 10 30 0E 06 03 55 04 03 0C 07 4D 69 6E 69 7A
                            69 70 31 10 30 0E 06 03 55 04 0A 0C 07 4D 69 6E
                            69 7A 69 70 31 0B 30 09 06 03 55 04 0B 0C 02 4D
                            5A 31 0B 30 09 06 03 55 04 08 0C 02 41 5A 31 0B
                            30 09 06 03 55 04 06 13 02 55 53 31 10 30 0E 06
                            03 55 04 07 0C 07 50 68 6F 65 6E 69 78 31 21 30
                            1F 06 09 2A 86 48 86 F7 0D 01 09 01 16 12 6E 61
                            74 68 61 6E 40 6E 61 74 68 61 6E 6D 2E 63 6F 6D
                            30 1E 17 0D 31 39 31 31 31 31 30 32 32 36 30 31
                            5A 17 0D 33 38 30 32 31 30 30 32 32 36 30 31 5A
                            30 81 80 31 10 30 0E 06 03 55 04 03 0C 07 4D 69
                            6E 69 7A 69 70 31 10 30 0E 06 03 55 04 0A 0C 07
                            4D 69 6E 69 7A 69 70 31 0B 30 09 06 03 55 04 0B
                            0C 02 4D 5A 31 0B 30 09 06 03 55 04 08 0C 02 41
                            5A 31 0B 30 09 06 03 55 04 06 13 02 55 53 31 10
                            30 0E 06 03 55 04 07 0C 07 50 68 6F 65 6E 69 78
                            31 21 30 1F 06 09 2A 86 48 86 F7 0D 01 09 01 16
                            12 6E 61 74 68 61 6E 40 6E 61 74 68 61 6E 6D 2E
                            63 6F 6D 30 82 01 22 30 0D 06 09 2A 86 48 86 F7
                            0D 01 01 01 05 00 03 82 01 0F 00 30 82 01 0A 02
                            82 01 01 00 E4 67 1E 97 E3 28 DC 91 2A 25 68 CE
                            24 C3 5D 00 2B E4 16 DA 8E ED F7 BE 15 BA 45 52
                            B5 98 16 C3 5A 60 D0 52 04 5A FE 21 E5 A4 93 31
                            78 73 A6 01 93 9E CD EB BE 87 D5 56 27 D0 A8 D7
                            33 0E ED AA 09 7D BB C7 93 B8 98 4C 50 58 EE 51
                            69 5E 2E 71 74 CB D2 9E 09 8D AB 6F 83 1A 70 32
                            97 0B 8F 8E 6C 05 99 B1 5F B4 C2 FF 16 4F EE E4
                            FF F4 28 1E 25 C4 B6 34 9F 9A 54 A6 93 BA B1 4E
                            09 E9 2D 4D 8E 53 5C D7 DC D6 D5 FC B6 05 73 22
                            6D 3C 44 17 3F 52 31 60 A9 28 FC B6 D8 96 C1 87
                            32 16 87 37 D0 42 55 47 B1 09 B1 F3 26 91 2C C2
                            D8 18 DB AB 8D 9F 20 25 C3 9B 31 0A 3B 6A D3 7A
                            20 96 FB AD 44 A0 4E DD B1 2D C7 8B F9 A1 46 8D
                            BF 1D 35 AA 76 7D BF CA B1 63 54 47 E3 8C B3 C1
                            95 12 31 E8 3A B8 2E E7 1A 86 37 61 95 01 EA 1C
                            70 FC 83 C9 25 64 D0 1D 27 A8 9D 5B C8 30 68 1E
                            58 BE 7F 03 02 03 01 00 01 A3 2A 30 28 30 0E 06
                            03 55 1D 0F 01 01 FF 04 04 03 02 02 84 30 16 06
                            03 55 1D 25 01 01 FF 04 0C 30 0A 06 08 2B 06 01
                            05 05 07 03 03 30 0D 06 09 2A 86 48 86 F7 0D 01
                            01 0B 05 00 03 82 01 01 00 56 70 B4 F8 86 44 84
                            D5 CB 13 8F 62 21 46 F4 68 29 7E 5E 3B 3E 20 FC
                            62 F8 05 B3 2C 06 62 18 75 33 5C 01 3F CC 34 5E
                            60 22 07 99 44 72 54 89 A6 A9 AD 30 1A C0 6E 8A
                            99 B7 FD 71 45 12 CF 4E 1B 58 C8 AD 12 B2 66 60
                            03 C2 F4 F9 99 84 DE 74 D5 8C C8 B2 BF 1C 86 4B
                            39 F8 C0 84 D1 9D 0F E9 24 E0 A2 BD E1 C4 66 79
                            45 2B A1 EA F0 B3 2A 38 08 38 D3 17 39 EB EE 04
                            F0 88 B4 96 66 28 8A CE A3 01 C7 FD 5B D3 61 45
                            5C 9F 76 6A 05 13 D5 38 77 85 B8 1B A0 47 2C 3C
                            FD 1A A9 53 F4 A9 3D BD 4F BA 9A 3D 33 B2 95 54
                            DC ED A5 73 33 7D 55 76 B7 0D B2 35 08 99 EC 64
                            97 28 5E B9 BA 40 DF 43 CB 7B FB 87 16 6C 83 66
                            2A 99 03 C8 0E 41 83 99 5C 41 3D C3 A6 32 A6 89
                            44 D8 1A DA 8A 53 5D E6 FC E8 1B 11 2F 60 C9 A9
                            A9 7D CB 0D 8A 8A D3 88 AC 3A 26 74 AE C2 3B FA
                            54 06 42 F8 56 65 CF 4D DB 31 82 02 97 30 82 02
                            93 02 01 01 30 81 86 30 81 80 31 10 30 0E 06 03
                            55 04 03 0C 07 4D 69 6E 69 7A 69 70 31 10 30 0E
                            06 03 55 04 0A 0C 07 4D 69 6E 69 7A 69 70 31 0B
                            30 09 06 03 55 04 0B 0C 02 4D 5A 31 0B 30 09 06
                            03 55 04 08 0C 02 41 5A 31 0B 30 09 06 03 55 04
                            06 13 02 55 53 31 10 30 0E 06 03 55 04 07 0C 07
                            50 68 6F 65 6E 69 78 31 21 30 1F 06 09 2A 86 48
                            86 F7 0D 01 09 01 16 12 6E 61 74 68 61 6E 40 6E
                            61 74 68 61 6E 6D 2E 63 6F 6D 02 01 01 30 0B 06
                            09 60 86 48 01 65 03 04 02 01 A0 81 E4 30 18 06
                            09 2A 86 48 86 F7 0D 01 09 03 31 0B 06 09 2A 86
                            48 86 F7 0D 01 07 01 30 1C 06 09 2A 86 48 86 F7
                            0D 01 09 05 31 0F 17 0D 32 33 30 31 30 31 31 34
                            30 39 33 39 5A 30 2F 06 09 2A 86 48 86 F7 0D 01
                            09 04 31 22 04 20 96 B7 88 88 DE B4 6B 1D A6 27
                            E4 25 6B 34 28 6E F1 64 CB FB E0 2C 1D AE D2 7D
                            F2 C0 BF 08 1B F3 30 79 06 09 2A 86 48 86 F7 0D
                            01 09 0F 31 6C 30 6A 30 0B 06 09 60 86 48 01 65
                            03 04 01 2A 30 0B 06 09 60 86 48 01 65 03 04 01
                            16 30 0B 06 09 60 86 48 01 65 03 04 01 02 30 0A
                            06 08 2A 86 48 86 F7 0D 03 07 30 0E 06 08 2A 86
                            48 86 F7 0D 03 02 02 02 00 80 30 0D 06 08 2A 86
                            48 86 F7 0D 03 02 02 01 40 30 07 06 05 2B 0E 03
                            02 07 30 0D 06 08 2A 86 48 86 F7 0D 03 02 02 01
                            28 30 0D 06 09 2A 86 48 86 F7 0D 01 01 01 05 00
                            04 82 01 00 7B 32 18 1F 3A 33 95 6B 39 DC 0F 19
                            0B 03 06 49 A6 EE 7E 0F F6 FA 8A 0E FF 64 4E 6B
                            B0 35 FB 70 34 4C 92 AE AD B3 25 29 0C E1 2B 9C
                            D9 60 26 DB 17 A4 1A 9D 7D A9 55 C0 DF 17 13 5D
                            F2 17 E1 63 3E 52 35 63 C3 82 A4 34 0B FA B4 1D
                            E8 E3 FD 2A 46 AB AB 30 33 49 16 15 94 47 32 7A
                            2B DA 8D 36 BB F2 ED A6 67 55 09 B4 FD 4B D9 C2
                            12 80 11 D9 73 E3 1F 65 83 2D 78 FC F3 59 BA A8
                            AC 7E E5 B7 7B 23 A6 B1 15 8B 24 FC 32 4B 8F E3
                            14 8F 63 68 1F B0 11 31 B5 3A BC C6 A6 C3 FA 75
                            EC 54 5F 7F 83 22 3A 60 C9 80 18 27 E3 CD A2 15
                            96 34 99 35 6A 4F 3B 63 6E B5 77 7B 6B 20 E8 76
                            0D B9 3E 9D 41 DD 14 13 02 A1 3D E1 2A 9D 3E DA
                            DF 06 4B 32 89 16 29 96 48 C8 95 8F CB B1 A8 FF
                            65 59 41 62 16 6D 33 C1 0D EF 3F FE 52 FC FC 74
                            89 28 BB 85 FC C4 E8 07 BE CD F9 09 CC B7 01 BC
                            0E 87 61 62
23252 PAYLOAD

23674 DATA DESCRIPTOR       08074B50 (134695760)
23678 CRC                   9062EB2C (2422401836)
2367C Compressed Length     00000422 (1058)
23680 Uncompressed Length   00000D07 (3335)

23684 LOCAL HEADER #7       04034B50 (67324752)
23688 Extract Zip Spec      14 (20) '2.0'
23689 Extract OS            00 (0) 'MS-DOS'
2368A General Purpose Flag  0802 (2050)
      [Bit 11]              1 'Language Encoding'
2368C Compression Method    0000 (0) 'Stored'
2368E Last Mod Time         56216F52 (1445031762) 'Sun Jan  1 13:58:36 2023'
23692 CRC                   00000000 (0)
23696 Compressed Length     00000000 (0)
2369A Uncompressed Length   00000000 (0)
2369E Filename Length       0019 (25)
236A0 Extra Length          0000 (0)
236A2 Filename              'unzip_fuzzer_seed_corpus/'

236BB LOCAL HEADER #8       04034B50 (67324752)
236BF Extract Zip Spec      14 (20) '2.0'
236C0 Extract OS            00 (0) 'MS-DOS'
236C1 General Purpose Flag  080A (2058)
      [Bits 1-2]            1 'Maximum Compression'
      [Bit  3]              1 'Streamed'
      [Bit 11]              1 'Language Encoding'
236C3 Compression Method    0008 (8) 'Deflated'
236C5 Last Mod Time         56216F52 (1445031762) 'Sun Jan  1 13:58:36 2023'
236C9 CRC                   00000000 (0)
236CD Compressed Length     00000000 (0)
236D1 Uncompressed Length   000002DE (734)
236D5 Filename Length       0029 (41)
236D7 Extra Length          06D0 (1744)
236D9 Filename              'unzip_fuzzer_seed_corpus/license_zstd.zip'
23702 Extra ID #1           1A51 (6737) 'Minizip Hash'
23704   Length              0024 (36)
23706   Algorithm           0017 (23) 'SHA256'
23708   Digest Size         0020 (32)
2370A   Digest              B5 5B BD 30 0E 03 1B B6 07 17 C6 48 1D 7C 2F A1
                            BD 45 F3 34 BE 5B 94 34 59 97 83 29 42 F3 D7 C1
2372A Extra ID #2           10C5 (4293) 'Minizip CMS Signature'
2372C   Length              06A4 (1700)
2372E   Signature           30 82 06 A0 06 09 2A 86 48 86 F7 0D 01 07 02 A0
                            82 06 91 30 82 06 8D 02 01 01 31 0D 30 0B 06 09
                            60 86 48 01 65 03 04 02 01 30 2F 06 09 2A 86 48
                            86 F7 0D 01 07 01 A0 22 04 20 B5 5B BD 30 0E 03
                            1B B6 07 17 C6 48 1D 7C 2F A1 BD 45 F3 34 BE 5B
                            94 34 59 97 83 29 42 F3 D7 C1 A0 82 03 AB 30 82
                            03 A7 30 82 02 8F A0 03 02 01 02 02 01 01 30 0D
                            06 09 2A 86 48 86 F7 0D 01 01 0B 05 00 30 81 80
                            31 10 30 0E 06 03 55 04 03 0C 07 4D 69 6E 69 7A
                            69 70 31 10 30 0E 06 03 55 04 0A 0C 07 4D 69 6E
                            69 7A 69 70 31 0B 30 09 06 03 55 04 0B 0C 02 4D
                            5A 31 0B 30 09 06 03 55 04 08 0C 02 41 5A 31 0B
                            30 09 06 03 55 04 06 13 02 55 53 31 10 30 0E 06
                            03 55 04 07 0C 07 50 68 6F 65 6E 69 78 31 21 30
                            1F 06 09 2A 86 48 86 F7 0D 01 09 01 16 12 6E 61
                            74 68 61 6E 40 6E 61 74 68 61 6E 6D 2E 63 6F 6D
                            30 1E 17 0D 31 39 31 31 31 31 30 32 32 36 30 31
                            5A 17 0D 33 38 30 32 31 30 30 32 32 36 30 31 5A
                            30 81 80 31 10 30 0E 06 03 55 04 03 0C 07 4D 69
                            6E 69 7A 69 70 31 10 30 0E 06 03 55 04 0A 0C 07
                            4D 69 6E 69 7A 69 70 31 0B 30 09 06 03 55 04 0B
                            0C 02 4D 5A 31 0B 30 09 06 03 55 04 08 0C 02 41
                            5A 31 0B 30 09 06 03 55 04 06 13 02 55 53 31 10
                            30 0E 06 03 55 04 07 0C 07 50 68 6F 65 6E 69 78
                            31 21 30 1F 06 09 2A 86 48 86 F7 0D 01 09 01 16
                            12 6E 61 74 68 61 6E 40 6E 61 74 68 61 6E 6D 2E
                            63 6F 6D 30 82 01 22 30 0D 06 09 2A 86 48 86 F7
                            0D 01 01 01 05 00 03 82 01 0F 00 30 82 01 0A 02
                            82 01 01 00 E4 67 1E 97 E3 28 DC 91 2A 25 68 CE
                            24 C3 5D 00 2B E4 16 DA 8E ED F7 BE 15 BA 45 52
                            B5 98 16 C3 5A 60 D0 52 04 5A FE 21 E5 A4 93 31
                            78 73 A6 01 93 9E CD EB BE 87 D5 56 27 D0 A8 D7
                            33 0E ED AA 09 7D BB C7 93 B8 98 4C 50 58 EE 51
                            69 5E 2E 71 74 CB D2 9E 09 8D AB 6F 83 1A 70 32
                            97 0B 8F 8E 6C 05 99 B1 5F B4 C2 FF 16 4F EE E4
                            FF F4 28 1E 25 C4 B6 34 9F 9A 54 A6 93 BA B1 4E
                            09 E9 2D 4D 8E 53 5C D7 DC D6 D5 FC B6 05 73 22
                            6D 3C 44 17 3F 52 31 60 A9 28 FC B6 D8 96 C1 87
                            32 16 87 37 D0 42 55 47 B1 09 B1 F3 26 91 2C C2
                            D8 18 DB AB 8D 9F 20 25 C3 9B 31 0A 3B 6A D3 7A
                            20 96 FB AD 44 A0 4E DD B1 2D C7 8B F9 A1 46 8D
                            BF 1D 35 AA 76 7D BF CA B1 63 54 47 E3 8C B3 C1
                            95 12 31 E8 3A B8 2E E7 1A 86 37 61 95 01 EA 1C
                            70 FC 83 C9 25 64 D0 1D 27 A8 9D 5B C8 30 68 1E
                            58 BE 7F 03 02 03 01 00 01 A3 2A 30 28 30 0E 06
                            03 55 1D 0F 01 01 FF 04 04 03 02 02 84 30 16 06
                            03 55 1D 25 01 01 FF 04 0C 30 0A 06 08 2B 06 01
                            05 05 07 03 03 30 0D 06 09 2A 86 48 86 F7 0D 01
                            01 0B 05 00 03 82 01 01 00 56 70 B4 F8 86 44 84
                            D5 CB 13 8F 62 21 46 F4 68 29 7E 5E 3B 3E 20 FC
                            62 F8 05 B3 2C 06 62 18 75 33 5C 01 3F CC 34 5E
                            60 22 07 99 44 72 54 89 A6 A9 AD 30 1A C0 6E 8A
                            99 B7 FD 71 45 12 CF 4E 1B 58 C8 AD 12 B2 66 60
                            03 C2 F4 F9 99 84 DE 74 D5 8C C8 B2 BF 1C 86 4B
                            39 F8 C0 84 D1 9D 0F E9 24 E0 A2 BD E1 C4 66 79
                            45 2B A1 EA F0 B3 2A 38 08 38 D3 17 39 EB EE 04
                            F0 88 B4 96 66 28 8A CE A3 01 C7 FD 5B D3 61 45
                            5C 9F 76 6A 05 13 D5 38 77 85 B8 1B A0 47 2C 3C
                            FD 1A A9 53 F4 A9 3D BD 4F BA 9A 3D 33 B2 95 54
                            DC ED A5 73 33 7D 55 76 B7 0D B2 35 08 99 EC 64
                            97 28 5E B9 BA 40 DF 43 CB 7B FB 87 16 6C 83 66
                            2A 99 03 C8 0E 41 83 99 5C 41 3D C3 A6 32 A6 89
                            44 D8 1A DA 8A 53 5D E6 FC E8 1B 11 2F 60 C9 A9
                            A9 7D CB 0D 8A 8A D3 88 AC 3A 26 74 AE C2 3B FA
                            54 06 42 F8 56 65 CF 4D DB 31 82 02 97 30 82 02
                            93 02 01 01 30 81 86 30 81 80 31 10 30 0E 06 03
                            55 04 03 0C 07 4D 69 6E 69 7A 69 70 31 10 30 0E
                            06 03 55 04 0A 0C 07 4D 69 6E 69 7A 69 70 31 0B
                            30 09 06 03 55 04 0B 0C 02 4D 5A 31 0B 30 09 06
                            03 55 04 08 0C 02 41 5A 31 0B 30 09 06 03 55 04
                            06 13 02 55 53 31 10 30 0E 06 03 55 04 07 0C 07
                            50 68 6F 65 6E 69 78 31 21 30 1F 06 09 2A 86 48
                            86 F7 0D 01 09 01 16 12 6E 61 74 68 61 6E 40 6E
                            61 74 68 61 6E 6D 2E 63 6F 6D 02 01 01 30 0B 06
                            09 60 86 48 01 65 03 04 02 01 A0 81 E4 30 18 06
                            09 2A 86 48 86 F7 0D 01 09 03 31 0B 06 09 2A 86
                            48 86 F7 0D 01 07 01 30 1C 06 09 2A 86 48 86 F7
                            0D 01 09 05 31 0F 17 0D 32 33 30 31 30 31 31 34
                            30 39 33 39 5A 30 2F 06 09 2A 86 48 86 F7 0D 01
                            09 04 31 22 04 20 0C E5 1C FC 8B 38 5E 39 94 AD
                            73 BD 18 3B 18 3A E6 BC 5C 59 F8 16 F2 DC 0A FB
                            1D 76 09 D0 E1 D0 30 79 06 09 2A 86 48 86 F7 0D
                            01 09 0F 31 6C 30 6A 30 0B 06 09 60 86 48 01 65
                            03 04 01 2A 30 0B 06 09 60 86 48 01 65 03 04 01
                            16 30 0B 06 09 60 86 48 01 65 03 04 01 02 30 0A
                            06 08 2A 86 48 86 F7 0D 03 07 30 0E 06 08 2A 86
                            48 86 F7 0D 03 02 02 02 00 80 30 0D 06 08 2A 86
                            48 86 F7 0D 03 02 02 01 40 30 07 06 05 2B 0E 03
                            02 07 30 0D 06 08 2A 86 48 86 F7 0D 03 02 02 01
                            28 30 0D 06 09 2A 86 48 86 F7 0D 01 01 01 05 00
                            04 82 01 00 6A E2 A8 C7 41 37 42 77 BA 6B 31 C7
                            EA D8 44 1B 42 E9 16 1B D6 10 70 5E 38 E9 3B FE
                            56 31 98 FA 3C 26 BE 81 58 92 F0 1E 33 72 1B 9A
                            17 F7 C3 36 32 56 80 B1 76 B3 98 FD F8 9B AA 88
                            D3 9F AC 00 47 14 E4 5E 0E 4C E7 44 FE 65 22 89
                            D9 A1 E0 00 F5 DD EB 7F 9F 02 71 63 AE C0 31 51
                            62 B8 DD 7C 2E FF E0 4F F7 96 67 39 6D DE C5 7C
                            D9 98 8D 89 FD 2A 5B C7 25 7C AD 7C 57 9B 5F 95
                            91 6E DF F8 D2 25 40 78 0C 3F 07 5C DD 2B A2 AF
                            C7 02 40 7E 66 65 47 FC 98 B9 52 47 61 01 75 6E
                            EB A6 03 52 A5 83 A8 CA 26 87 E9 84 14 F0 A7 A2
                            6F 41 FA 0E AA 2F 17 77 0B 07 C6 41 0B 75 74 88
                            FE 70 DC 6A 59 BB 24 4F F4 B2 30 6C F9 71 58 B4
                            B4 F4 C0 D2 40 76 EF CB 58 2C C6 4F 53 96 52 17
                            03 6E 03 82 E9 2A BE 79 0B 14 3F A7 D2 E0 9E 47
                            FD EB 06 F0 96 42 2C 7C EA B3 EC 48 9B AE 42 D0
                            BB BE 92 EE
23DD2 PAYLOAD

24073 DATA DESCRIPTOR       08074B50 (134695760)
24077 CRC                   0DFE0B22 (234752802)
2407B Compressed Length     000002A1 (673)
2407F Uncompressed Length   000002DE (734)

24083 LOCAL HEADER #9       04034B50 (67324752)
24087 Extract Zip Spec      14 (20) '2.0'
24088 Extract OS            00 (0) 'MS-DOS'
24089 General Purpose Flag  080A (2058)
      [Bits 1-2]            1 'Maximum Compression'
      [Bit  3]              1 'Streamed'
      [Bit 11]              1 'Language Encoding'
2408B Compression Method    0008 (8) 'Deflated'
2408D Last Mod Time         56216F52 (1445031762) 'Sun Jan  1 13:58:36 2023'
24091 CRC                   00000000 (0)
24095 Compressed Length     00000000 (0)
24099 Uncompressed Length   000070C0 (28864)
2409D Filename Length       0021 (33)
2409F Extra Length          06D0 (1744)
240A1 Filename              'unzip_fuzzer_seed_corpus/lzma.zip'
240C2 Extra ID #1           1A51 (6737) 'Minizip Hash'
240C4   Length              0024 (36)
240C6   Algorithm           0017 (23) 'SHA256'
240C8   Digest Size         0020 (32)
240CA   Digest              49 43 5B F7 C3 B4 FA 37 24 37 1E 0F B1 50 0B 7D
                            A3 E4 75 A5 B0 44 B8 E7 C9 D1 31 D3 5F 3B 85 33
240EA Extra ID #2           10C5 (4293) 'Minizip CMS Signature'
240EC   Length              06A4 (1700)
240EE   Signature           30 82 06 A0 06 09 2A 86 48 86 F7 0D 01 07 02 A0
                            82 06 91 30 82 06 8D 02 01 01 31 0D 30 0B 06 09
                            60 86 48 01 65 03 04 02 01 30 2F 06 09 2A 86 48
                            86 F7 0D 01 07 01 A0 22 04 20 49 43 5B F7 C3 B4
                            FA 37 24 37 1E 0F B1 50 0B 7D A3 E4 75 A5 B0 44
                            B8 E7 C9 D1 31 D3 5F 3B 85 33 A0 82 03 AB 30 82
                            03 A7 30 82 02 8F A0 03 02 01 02 02 01 01 30 0D
                            06 09 2A 86 48 86 F7 0D 01 01 0B 05 00 30 81 80
                            31 10 30 0E 06 03 55 04 03 0C 07 4D 69 6E 69 7A
                            69 70 31 10 30 0E 06 03 55 04 0A 0C 07 4D 69 6E
                            69 7A 69 70 31 0B 30 09 06 03 55 04 0B 0C 02 4D
                            5A 31 0B 30 09 06 03 55 04 08 0C 02 41 5A 31 0B
                            30 09 06 03 55 04 06 13 02 55 53 31 10 30 0E 06
                            03 55 04 07 0C 07 50 68 6F 65 6E 69 78 31 21 30
                            1F 06 09 2A 86 48 86 F7 0D 01 09 01 16 12 6E 61
                            74 68 61 6E 40 6E 61 74 68 61 6E 6D 2E 63 6F 6D
                            30 1E 17 0D 31 39 31 31 31 31 30 32 32 36 30 31
                            5A 17 0D 33 38 30 32 31 30 30 32 32 36 30 31 5A
                            30 81 80 31 10 30 0E 06 03 55 04 03 0C 07 4D 69
                            6E 69 7A 69 70 31 10 30 0E 06 03 55 04 0A 0C 07
                            4D 69 6E 69 7A 69 70 31 0B 30 09 06 03 55 04 0B
                            0C 02 4D 5A 31 0B 30 09 06 03 55 04 08 0C 02 41
                            5A 31 0B 30 09 06 03 55 04 06 13 02 55 53 31 10
                            30 0E 06 03 55 04 07 0C 07 50 68 6F 65 6E 69 78
                            31 21 30 1F 06 09 2A 86 48 86 F7 0D 01 09 01 16
                            12 6E 61 74 68 61 6E 40 6E 61 74 68 61 6E 6D 2E
                            63 6F 6D 30 82 01 22 30 0D 06 09 2A 86 48 86 F7
                            0D 01 01 01 05 00 03 82 01 0F 00 30 82 01 0A 02
                            82 01 01 00 E4 67 1E 97 E3 28 DC 91 2A 25 68 CE
                            24 C3 5D 00 2B E4 16 DA 8E ED F7 BE 15 BA 45 52
                            B5 98 16 C3 5A 60 D0 52 04 5A FE 21 E5 A4 93 31
                            78 73 A6 01 93 9E CD EB BE 87 D5 56 27 D0 A8 D7
                            33 0E ED AA 09 7D BB C7 93 B8 98 4C 50 58 EE 51
                            69 5E 2E 71 74 CB D2 9E 09 8D AB 6F 83 1A 70 32
                            97 0B 8F 8E 6C 05 99 B1 5F B4 C2 FF 16 4F EE E4
                            FF F4 28 1E 25 C4 B6 34 9F 9A 54 A6 93 BA B1 4E
                            09 E9 2D 4D 8E 53 5C D7 DC D6 D5 FC B6 05 73 22
                            6D 3C 44 17 3F 52 31 60 A9 28 FC B6 D8 96 C1 87
                            32 16 87 37 D0 42 55 47 B1 09 B1 F3 26 91 2C C2
                            D8 18 DB AB 8D 9F 20 25 C3 9B 31 0A 3B 6A D3 7A
                            20 96 FB AD 44 A0 4E DD B1 2D C7 8B F9 A1 46 8D
                            BF 1D 35 AA 76 7D BF CA B1 63 54 47 E3 8C B3 C1
                            95 12 31 E8 3A B8 2E E7 1A 86 37 61 95 01 EA 1C
                            70 FC 83 C9 25 64 D0 1D 27 A8 9D 5B C8 30 68 1E
                            58 BE 7F 03 02 03 01 00 01 A3 2A 30 28 30 0E 06
                            03 55 1D 0F 01 01 FF 04 04 03 02 02 84 30 16 06
                            03 55 1D 25 01 01 FF 04 0C 30 0A 06 08 2B 06 01
                            05 05 07 03 03 30 0D 06 09 2A 86 48 86 F7 0D 01
                            01 0B 05 00 03 82 01 01 00 56 70 B4 F8 86 44 84
                            D5 CB 13 8F 62 21 46 F4 68 29 7E 5E 3B 3E 20 FC
                            62 F8 05 B3 2C 06 62 18 75 33 5C 01 3F CC 34 5E
                            60 22 07 99 44 72 54 89 A6 A9 AD 30 1A C0 6E 8A
                            99 B7 FD 71 45 12 CF 4E 1B 58 C8 AD 12 B2 66 60
                            03 C2 F4 F9 99 84 DE 74 D5 8C C8 B2 BF 1C 86 4B
                            39 F8 C0 84 D1 9D 0F E9 24 E0 A2 BD E1 C4 66 79
                            45 2B A1 EA F0 B3 2A 38 08 38 D3 17 39 EB EE 04
                            F0 88 B4 96 66 28 8A CE A3 01 C7 FD 5B D3 61 45
                            5C 9F 76 6A 05 13 D5 38 77 85 B8 1B A0 47 2C 3C
                            FD 1A A9 53 F4 A9 3D BD 4F BA 9A 3D 33 B2 95 54
                            DC ED A5 73 33 7D 55 76 B7 0D B2 35 08 99 EC 64
                            97 28 5E B9 BA 40 DF 43 CB 7B FB 87 16 6C 83 66
                            2A 99 03 C8 0E 41 83 99 5C 41 3D C3 A6 32 A6 89
                            44 D8 1A DA 8A 53 5D E6 FC E8 1B 11 2F 60 C9 A9
                            A9 7D CB 0D 8A 8A D3 88 AC 3A 26 74 AE C2 3B FA
                            54 06 42 F8 56 65 CF 4D DB 31 82 02 97 30 82 02
                            93 02 01 01 30 81 86 30 81 80 31 10 30 0E 06 03
                            55 04 03 0C 07 4D 69 6E 69 7A 69 70 31 10 30 0E
                            06 03 55 04 0A 0C 07 4D 69 6E 69 7A 69 70 31 0B
                            30 09 06 03 55 04 0B 0C 02 4D 5A 31 0B 30 09 06
                            03 55 04 08 0C 02 41 5A 31 0B 30 09 06 03 55 04
                            06 13 02 55 53 31 10 30 0E 06 03 55 04 07 0C 07
                            50 68 6F 65 6E 69 78 31 21 30 1F 06 09 2A 86 48
                            86 F7 0D 01 09 01 16 12 6E 61 74 68 61 6E 40 6E
                            61 74 68 61 6E 6D 2E 63 6F 6D 02 01 01 30 0B 06
                            09 60 86 48 01 65 03 04 02 01 A0 81 E4 30 18 06
                            09 2A 86 48 86 F7 0D 01 09 03 31 0B 06 09 2A 86
                            48 86 F7 0D 01 07 01 30 1C 06 09 2A 86 48 86 F7
                            0D 01 09 05 31 0F 17 0D 32 33 30 31 30 31 31 34
                            30 39 33 39 5A 30 2F 06 09 2A 86 48 86 F7 0D 01
                            09 04 31 22 04 20 0C 74 AD CD 7D 45 0B 52 65 A7
                            D6 78 44 3C F0 FA DE 4C 62 AD 1F 4F DC 34 A7 8F
                            78 84 CE 0C 9C 2E 30 79 06 09 2A 86 48 86 F7 0D
                            01 09 0F 31 6C 30 6A 30 0B 06 09 60 86 48 01 65
                            03 04 01 2A 30 0B 06 09 60 86 48 01 65 03 04 01
                            16 30 0B 06 09 60 86 48 01 65 03 04 01 02 30 0A
                            06 08 2A 86 48 86 F7 0D 03 07 30 0E 06 08 2A 86
                            48 86 F7 0D 03 02 02 02 00 80 30 0D 06 08 2A 86
                            48 86 F7 0D 03 02 02 01 40 30 07 06 05 2B 0E 03
                            02 07 30 0D 06 08 2A 86 48 86 F7 0D 03 02 02 01
                            28 30 0D 06 09 2A 86 48 86 F7 0D 01 01 01 05 00
                            04 82 01 00 C2 87 0B DF 99 C5 6C 26 2E 21 67 75
                            6E B3 FC 33 19 7C 05 CA C0 15 69 CB AC 50 57 91
                            10 CD 2A D2 52 EB 43 2A 40 B1 C6 6E AA 93 26 62
                            B3 84 CC 98 30 A3 5D C2 9F DA AD 3C 00 E2 78 A8
                            6D DD 39 67 01 79 35 DA 1D D1 F0 B2 70 7A 25 21
                            28 79 E9 AC B0 F7 70 2C E0 6D 41 72 6E 6D 64 BB
                            66 EF ED 47 B9 B8 2E A3 78 6A 22 A4 09 19 AE 2D
                            92 6C 16 DB 72 4D 58 02 EA A0 6F 15 15 44 83 9F
                            35 06 06 DC 00 16 C9 61 57 DB 24 53 50 0F 80 D3
                            B3 5C 25 D8 5C 02 7C 39 45 A6 30 60 5E 95 AE 12
                            DB 9F BF 2A 14 8B 67 3B E2 03 D7 37 0A F8 58 9D
                            84 1C FE EA 07 96 07 5F 07 A6 19 D2 4F 10 F5 83
                            E9 C6 F3 16 96 30 F2 D9 B9 43 B5 43 1E 5D 49 83
                            2C 6B 78 6A 6A 19 EF 82 90 74 5A 63 D3 F1 02 3B
                            A0 BD 2E A4 22 A0 5C F5 74 19 97 6E 6A 70 BB AF
                            F3 6F 68 09 D4 FD 01 FC D4 07 BA 03 97 15 9A 0E
                            86 56 8C 40
24792 PAYLOAD               ..@..

24797 LOCAL HEADER #10      04034B50 (67324752)
2479B Extract Zip Spec      3F (63) '6.3'
2479C Extract OS            00 (0) 'MS-DOS'
2479D General Purpose Flag  0002 (2)
      [Bit 1]               1 'LZMA EOS Marker Present'
2479F Compression Method    000E (14) 'LZMA'
247A1 Last Mod Time         4D6BBAB5 (1298905781) 'Sun Nov 11 23:21:42 2018'
247A5 CRC                   F9A6BFF4 (4188454900)
247A9 Compressed Length     00007028 (28712)
247AD Uncompressed Length   00007291 (29329)
247B1 Filename Length       0009 (9)
247B3 Extra Length          0000 (0)
247B5 Filename              'lenna.jpg'
247BE LZMA Version          1205 '18.5'
247C0 LZMA Properties Size  0005 (5)
247C2 LZMA Info             5D (93) '(Default)'
        PosStateBits        2
        LiteralPosStateBits 0
        LiteralContextBits  3
247C3 LZMA Dictionary Size  00008000 (32768)
247C7 PAYLOAD

2B7E6 UNEXPECTED PADDING    L./q-.r(c#. '9.+.)(.2.$_a..y.y.-Jz....h..7].......%YP0A.._. .................D..QW.s.T.b...D..../.d!..w..D.?T..o.?
#
# INFO: Offset 0x2B7E6: 0x72 (114) Unexpected Padding bytes
#

2B858 DATA DESCRIPTOR       08074B50 (134695760)
2B85C CRC                   7FF0384D (2146449485)
2B860 Compressed Length     000070C6 (28870)
2B864 Uncompressed Length   000070C0 (28864)

2B868 LOCAL HEADER #11      04034B50 (67324752)
2B86C Extract Zip Spec      14 (20) '2.0'
2B86D Extract OS            00 (0) 'MS-DOS'
2B86E General Purpose Flag  080A (2058)
      [Bits 1-2]            1 'Maximum Compression'
      [Bit  3]              1 'Streamed'
      [Bit 11]              1 'Language Encoding'
2B870 Compression Method    0008 (8) 'Deflated'
2B872 Last Mod Time         56216F52 (1445031762) 'Sun Jan  1 13:58:36 2023'
2B876 CRC                   00000000 (0)
2B87A Compressed Length     00000000 (0)
2B87E Uncompressed Length   000000F6 (246)
2B882 Filename Length       001F (31)
2B884 Extra Length          06D0 (1744)
2B886 Filename              'unzip_fuzzer_seed_corpus/gh.zip'
2B8A5 Extra ID #1           1A51 (6737) 'Minizip Hash'
2B8A7   Length              0024 (36)
2B8A9   Algorithm           0017 (23) 'SHA256'
2B8AB   Digest Size         0020 (32)
2B8AD   Digest              09 E4 6B 58 CE 28 F8 11 47 80 93 54 10 28 AE BE
                            2E B6 F1 07 4D 1C 92 5D 1D 40 F5 45 3D 11 BF 90
2B8CD Extra ID #2           10C5 (4293) 'Minizip CMS Signature'
2B8CF   Length              06A4 (1700)
2B8D1   Signature           30 82 06 A0 06 09 2A 86 48 86 F7 0D 01 07 02 A0
                            82 06 91 30 82 06 8D 02 01 01 31 0D 30 0B 06 09
                            60 86 48 01 65 03 04 02 01 30 2F 06 09 2A 86 48
                            86 F7 0D 01 07 01 A0 22 04 20 09 E4 6B 58 CE 28
                            F8 11 47 80 93 54 10 28 AE BE 2E B6 F1 07 4D 1C
                            92 5D 1D 40 F5 45 3D 11 BF 90 A0 82 03 AB 30 82
                            03 A7 30 82 02 8F A0 03 02 01 02 02 01 01 30 0D
                            06 09 2A 86 48 86 F7 0D 01 01 0B 05 00 30 81 80
                            31 10 30 0E 06 03 55 04 03 0C 07 4D 69 6E 69 7A
                            69 70 31 10 30 0E 06 03 55 04 0A 0C 07 4D 69 6E
                            69 7A 69 70 31 0B 30 09 06 03 55 04 0B 0C 02 4D
                            5A 31 0B 30 09 06 03 55 04 08 0C 02 41 5A 31 0B
                            30 09 06 03 55 04 06 13 02 55 53 31 10 30 0E 06
                            03 55 04 07 0C 07 50 68 6F 65 6E 69 78 31 21 30
                            1F 06 09 2A 86 48 86 F7 0D 01 09 01 16 12 6E 61
                            74 68 61 6E 40 6E 61 74 68 61 6E 6D 2E 63 6F 6D
                            30 1E 17 0D 31 39 31 31 31 31 30 32 32 36 30 31
                            5A 17 0D 33 38 30 32 31 30 30 32 32 36 30 31 5A
[...]
                            11 1E 32 B2 4C 46 30 B6 CD 34 81 53 D5 BE 11 AC
                            58 A2 17 AC

76EF5 CENTRAL HEADER #28    02014B50 (33639248)
76EF9 Created Zip Spec      3F (63) '6.3'
76EFA Created OS            03 (3) 'Unix'
76EFB Extract Zip Spec      14 (20) '2.0'
76EFC Extract OS            00 (0) 'MS-DOS'
76EFD General Purpose Flag  080A (2058)
      [Bits 1-2]            1 'Maximum Compression'
      [Bit  3]              1 'Streamed'
      [Bit 11]              1 'Language Encoding'
76EFF Compression Method    0008 (8) 'Deflated'
76F01 Last Mod Time         56216F52 (1445031762) 'Sun Jan  1 13:58:36 2023'
76F05 CRC                   1CA3704F (480473167)
76F09 Compressed Length     000000B9 (185)
76F0D Uncompressed Length   0000011E (286)
76F11 Filename Length       0011 (17)
76F13 Extra Length          06D0 (1744)
76F15 Comment Length        0000 (0)
76F17 Disk Start            0000 (0)
76F19 Int File Attributes   0000 (0)
      [Bit 0]               0 'Binary Data'
76F1B Ext File Attributes   81B40080 (2176057472)
      [Bit 7]               Normal
      [Bits 16-24]          01B4 (436) 'Unix attrib: rw-rw-r--'
      [Bits 28-31]          08 (8) 'Regular File'
76F1F Local Header Offset   0006B51A (439578)
76F23 Filename              'unzip_fuzzer.dict'
76F34 Extra ID #1           1A51 (6737) 'Minizip Hash'
76F36   Length              0024 (36)
76F38   Algorithm           0017 (23) 'SHA256'
76F3A   Digest Size         0020 (32)
76F3C   Digest              51 D4 89 27 FD 91 6B 51 63 3F C2 52 BF 33 30 69
                            CA 56 B8 DC DC 7F E6 F6 35 33 6F E2 F9 6F 24 81
76F5C Extra ID #2           10C5 (4293) 'Minizip CMS Signature'
76F5E   Length              06A4 (1700)
76F60   Signature           30 82 06 A0 06 09 2A 86 48 86 F7 0D 01 07 02 A0
                            82 06 91 30 82 06 8D 02 01 01 31 0D 30 0B 06 09
                            60 86 48 01 65 03 04 02 01 30 2F 06 09 2A 86 48
                            86 F7 0D 01 07 01 A0 22 04 20 51 D4 89 27 FD 91
                            6B 51 63 3F C2 52 BF 33 30 69 CA 56 B8 DC DC 7F
                            E6 F6 35 33 6F E2 F9 6F 24 81 A0 82 03 AB 30 82
                            03 A7 30 82 02 8F A0 03 02 01 02 02 01 01 30 0D
                            06 09 2A 86 48 86 F7 0D 01 01 0B 05 00 30 81 80
                            31 10 30 0E 06 03 55 04 03 0C 07 4D 69 6E 69 7A
                            69 70 31 10 30 0E 06 03 55 04 0A 0C 07 4D 69 6E
                            69 7A 69 70 31 0B 30 09 06 03 55 04 0B 0C 02 4D
                            5A 31 0B 30 09 06 03 55 04 08 0C 02 41 5A 31 0B
                            30 09 06 03 55 04 06 13 02 55 53 31 10 30 0E 06
                            03 55 04 07 0C 07 50 68 6F 65 6E 69 78 31 21 30
                            1F 06 09 2A 86 48 86 F7 0D 01 09 01 16 12 6E 61
                            74 68 61 6E 40 6E 61 74 68 61 6E 6D 2E 63 6F 6D
                            30 1E 17 0D 31 39 31 31 31 31 30 32 32 36 30 31
                            5A 17 0D 33 38 30 32 31 30 30 32 32 36 30 31 5A
                            30 81 80 31 10 30 0E 06 03 55 04 03 0C 07 4D 69
                            6E 69 7A 69 70 31 10 30 0E 06 03 55 04 0A 0C 07
                            4D 69 6E 69 7A 69 70 31 0B 30 09 06 03 55 04 0B
                            0C 02 4D 5A 31 0B 30 09 06 03 55 04 08 0C 02 41
                            5A 31 0B 30 09 06 03 55 04 06 13 02 55 53 31 10
                            30 0E 06 03 55 04 07 0C 07 50 68 6F 65 6E 69 78
                            31 21 30 1F 06 09 2A 86 48 86 F7 0D 01 09 01 16
                            12 6E 61 74 68 61 6E 40 6E 61 74 68 61 6E 6D 2E
                            63 6F 6D 30 82 01 22 30 0D 06 09 2A 86 48 86 F7
                            0D 01 01 01 05 00 03 82 01 0F 00 30 82 01 0A 02
                            82 01 01 00 E4 67 1E 97 E3 28 DC 91 2A 25 68 CE
                            24 C3 5D 00 2B E4 16 DA 8E ED F7 BE 15 BA 45 52
                            B5 98 16 C3 5A 60 D0 52 04 5A FE 21 E5 A4 93 31
                            78 73 A6 01 93 9E CD EB BE 87 D5 56 27 D0 A8 D7
                            33 0E ED AA 09 7D BB C7 93 B8 98 4C 50 58 EE 51
                            69 5E 2E 71 74 CB D2 9E 09 8D AB 6F 83 1A 70 32
                            97 0B 8F 8E 6C 05 99 B1 5F B4 C2 FF 16 4F EE E4
                            FF F4 28 1E 25 C4 B6 34 9F 9A 54 A6 93 BA B1 4E
                            09 E9 2D 4D 8E 53 5C D7 DC D6 D5 FC B6 05 73 22
                            6D 3C 44 17 3F 52 31 60 A9 28 FC B6 D8 96 C1 87
                            32 16 87 37 D0 42 55 47 B1 09 B1 F3 26 91 2C C2
                            D8 18 DB AB 8D 9F 20 25 C3 9B 31 0A 3B 6A D3 7A
                            20 96 FB AD 44 A0 4E DD B1 2D C7 8B F9 A1 46 8D
                            BF 1D 35 AA 76 7D BF CA B1 63 54 47 E3 8C B3 C1
                            95 12 31 E8 3A B8 2E E7 1A 86 37 61 95 01 EA 1C
                            70 FC 83 C9 25 64 D0 1D 27 A8 9D 5B C8 30 68 1E
                            58 BE 7F 03 02 03 01 00 01 A3 2A 30 28 30 0E 06
                            03 55 1D 0F 01 01 FF 04 04 03 02 02 84 30 16 06
                            03 55 1D 25 01 01 FF 04 0C 30 0A 06 08 2B 06 01
                            05 05 07 03 03 30 0D 06 09 2A 86 48 86 F7 0D 01
                            01 0B 05 00 03 82 01 01 00 56 70 B4 F8 86 44 84
                            D5 CB 13 8F 62 21 46 F4 68 29 7E 5E 3B 3E 20 FC
                            62 F8 05 B3 2C 06 62 18 75 33 5C 01 3F CC 34 5E
                            60 22 07 99 44 72 54 89 A6 A9 AD 30 1A C0 6E 8A
                            99 B7 FD 71 45 12 CF 4E 1B 58 C8 AD 12 B2 66 60
                            03 C2 F4 F9 99 84 DE 74 D5 8C C8 B2 BF 1C 86 4B
                            39 F8 C0 84 D1 9D 0F E9 24 E0 A2 BD E1 C4 66 79
                            45 2B A1 EA F0 B3 2A 38 08 38 D3 17 39 EB EE 04
                            F0 88 B4 96 66 28 8A CE A3 01 C7 FD 5B D3 61 45
                            5C 9F 76 6A 05 13 D5 38 77 85 B8 1B A0 47 2C 3C
                            FD 1A A9 53 F4 A9 3D BD 4F BA 9A 3D 33 B2 95 54
                            DC ED A5 73 33 7D 55 76 B7 0D B2 35 08 99 EC 64
                            97 28 5E B9 BA 40 DF 43 CB 7B FB 87 16 6C 83 66
                            2A 99 03 C8 0E 41 83 99 5C 41 3D C3 A6 32 A6 89
                            44 D8 1A DA 8A 53 5D E6 FC E8 1B 11 2F 60 C9 A9
                            A9 7D CB 0D 8A 8A D3 88 AC 3A 26 74 AE C2 3B FA
                            54 06 42 F8 56 65 CF 4D DB 31 82 02 97 30 82 02
                            93 02 01 01 30 81 86 30 81 80 31 10 30 0E 06 03
                            55 04 03 0C 07 4D 69 6E 69 7A 69 70 31 10 30 0E
                            06 03 55 04 0A 0C 07 4D 69 6E 69 7A 69 70 31 0B
                            30 09 06 03 55 04 0B 0C 02 4D 5A 31 0B 30 09 06
                            03 55 04 08 0C 02 41 5A 31 0B 30 09 06 03 55 04
                            06 13 02 55 53 31 10 30 0E 06 03 55 04 07 0C 07
                            50 68 6F 65 6E 69 78 31 21 30 1F 06 09 2A 86 48
                            86 F7 0D 01 09 01 16 12 6E 61 74 68 61 6E 40 6E
                            61 74 68 61 6E 6D 2E 63 6F 6D 02 01 01 30 0B 06
                            09 60 86 48 01 65 03 04 02 01 A0 81 E4 30 18 06
                            09 2A 86 48 86 F7 0D 01 09 03 31 0B 06 09 2A 86
                            48 86 F7 0D 01 07 01 30 1C 06 09 2A 86 48 86 F7
                            0D 01 09 05 31 0F 17 0D 32 33 30 31 30 31 31 34
                            30 39 33 39 5A 30 2F 06 09 2A 86 48 86 F7 0D 01
                            09 04 31 22 04 20 06 A8 F2 94 A7 A4 C0 6A B6 A1
                            86 47 F3 29 23 73 AC A0 46 20 42 ED 9E 99 8E 5C
                            75 32 DB 13 FB 3D 30 79 06 09 2A 86 48 86 F7 0D
                            01 09 0F 31 6C 30 6A 30 0B 06 09 60 86 48 01 65
                            03 04 01 2A 30 0B 06 09 60 86 48 01 65 03 04 01
                            16 30 0B 06 09 60 86 48 01 65 03 04 01 02 30 0A
                            06 08 2A 86 48 86 F7 0D 03 07 30 0E 06 08 2A 86
                            48 86 F7 0D 03 02 02 02 00 80 30 0D 06 08 2A 86
                            48 86 F7 0D 03 02 02 01 40 30 07 06 05 2B 0E 03
                            02 07 30 0D 06 08 2A 86 48 86 F7 0D 03 02 02 01
                            28 30 0D 06 09 2A 86 48 86 F7 0D 01 01 01 05 00
                            04 82 01 00 0F 8B E1 12 2B FA 5F FC C9 08 50 1E
                            2E 77 CE 7F 7F C3 59 BC 23 C8 92 64 31 58 10 19
                            2E 3E 74 19 BC 00 E5 2B 41 8E A8 10 43 59 52 AB
                            C3 1F 64 0A 2C B2 A5 A5 15 D1 99 2E FB 56 9E 81
                            41 EB A7 81 C2 E3 81 D8 94 56 BD C3 61 49 CE 7F
                            BA 0C 72 35 5B BA C5 75 21 ED 2F 79 4C 2B 0D C2
                            F0 6F 27 C0 B6 6E 82 D4 69 31 69 72 CF 0E C1 A5
                            09 0E B4 C4 BE B0 89 B4 5B 9B 0F 6D 81 31 43 CC
                            DB 0B 1F 94 CD F0 78 86 01 C0 44 CC 24 8C 6F 3B
                            6B 98 3F 51 F5 23 C5 4C B4 46 4E 8A D2 3A 98 F0
                            3F A6 A3 84 2D 0F A3 C2 BB 33 4C D3 36 F6 4B 8B
                            DD 68 19 3B F8 FA 24 DF B6 82 8C D9 CE 6A 2E 17
                            0E 63 18 79 73 CD B6 CA 0B 48 E9 B0 13 2B 6C 63
                            5C 1A B2 CB 9D BD 30 08 5C 1A C7 7F 24 AD F9 93
                            C8 27 BD DC AA 36 48 55 7C 4B EC 26 2A 29 C3 38
                            CC 61 1B 06 DB AA 50 01 EA F9 99 86 A6 CB D7 C7
                            F9 FA A4 0A

77604 CENTRAL HEADER #29    02014B50 (33639248)
77608 Created Zip Spec      3F (63) '6.3'
77609 Created OS            03 (3) 'Unix'
7760A Extract Zip Spec      14 (20) '2.0'
7760B Extract OS            00 (0) 'MS-DOS'
7760C General Purpose Flag  080A (2058)
      [Bits 1-2]            1 'Maximum Compression'
      [Bit  3]              1 'Streamed'
      [Bit 11]              1 'Language Encoding'
7760E Compression Method    0008 (8) 'Deflated'
77610 Last Mod Time         56216F52 (1445031762) 'Sun Jan  1 13:58:36 2023'
77614 CRC                   83DCEFB7 (2212294583)
77618 Compressed Length     00000003 (3)
7761C Uncompressed Length   00000001 (1)
77620 Filename Length       000A (10)
77622 Extra Length          06D0 (1744)
77624 Comment Length        0000 (0)
77626 Disk Start            0000 (0)
77628 Int File Attributes   0000 (0)
      [Bit 0]               0 'Binary Data'
7762A Ext File Attributes   81B40080 (2176057472)
      [Bit 7]               Normal
      [Bits 16-24]          01B4 (436) 'Unix attrib: rw-rw-r--'
      [Bits 28-31]          08 (8) 'Regular File'
7762E Local Header Offset   0006BCE2 (441570)
77632 Filename              'single.txt'
7763C Extra ID #1           1A51 (6737) 'Minizip Hash'
7763E   Length              0024 (36)
77640   Algorithm           0017 (23) 'SHA256'
77642   Digest Size         0020 (32)
77644   Digest              6B 86 B2 73 FF 34 FC E1 9D 6B 80 4E FF 5A 3F 57
                            47 AD A4 EA A2 2F 1D 49 C0 1E 52 DD B7 87 5B 4B
77664 Extra ID #2           10C5 (4293) 'Minizip CMS Signature'
77666   Length              06A4 (1700)
77668   Signature           30 82 06 A0 06 09 2A 86 48 86 F7 0D 01 07 02 A0
                            82 06 91 30 82 06 8D 02 01 01 31 0D 30 0B 06 09
                            60 86 48 01 65 03 04 02 01 30 2F 06 09 2A 86 48
                            86 F7 0D 01 07 01 A0 22 04 20 6B 86 B2 73 FF 34
                            FC E1 9D 6B 80 4E FF 5A 3F 57 47 AD A4 EA A2 2F
                            1D 49 C0 1E 52 DD B7 87 5B 4B A0 82 03 AB 30 82
                            03 A7 30 82 02 8F A0 03 02 01 02 02 01 01 30 0D
                            06 09 2A 86 48 86 F7 0D 01 01 0B 05 00 30 81 80
                            31 10 30 0E 06 03 55 04 03 0C 07 4D 69 6E 69 7A
                            69 70 31 10 30 0E 06 03 55 04 0A 0C 07 4D 69 6E
                            69 7A 69 70 31 0B 30 09 06 03 55 04 0B 0C 02 4D
                            5A 31 0B 30 09 06 03 55 04 08 0C 02 41 5A 31 0B
                            30 09 06 03 55 04 06 13 02 55 53 31 10 30 0E 06
                            03 55 04 07 0C 07 50 68 6F 65 6E 69 78 31 21 30
                            1F 06 09 2A 86 48 86 F7 0D 01 09 01 16 12 6E 61
                            74 68 61 6E 40 6E 61 74 68 61 6E 6D 2E 63 6F 6D
                            30 1E 17 0D 31 39 31 31 31 31 30 32 32 36 30 31
                            5A 17 0D 33 38 30 32 31 30 30 32 32 36 30 31 5A
                            30 81 80 31 10 30 0E 06 03 55 04 03 0C 07 4D 69
                            6E 69 7A 69 70 31 10 30 0E 06 03 55 04 0A 0C 07
                            4D 69 6E 69 7A 69 70 31 0B 30 09 06 03 55 04 0B
                            0C 02 4D 5A 31 0B 30 09 06 03 55 04 08 0C 02 41
                            5A 31 0B 30 09 06 03 55 04 06 13 02 55 53 31 10
                            30 0E 06 03 55 04 07 0C 07 50 68 6F 65 6E 69 78
                            31 21 30 1F 06 09 2A 86 48 86 F7 0D 01 09 01 16
                            12 6E 61 74 68 61 6E 40 6E 61 74 68 61 6E 6D 2E
                            63 6F 6D 30 82 01 22 30 0D 06 09 2A 86 48 86 F7
                            0D 01 01 01 05 00 03 82 01 0F 00 30 82 01 0A 02
                            82 01 01 00 E4 67 1E 97 E3 28 DC 91 2A 25 68 CE
                            24 C3 5D 00 2B E4 16 DA 8E ED F7 BE 15 BA 45 52
                            B5 98 16 C3 5A 60 D0 52 04 5A FE 21 E5 A4 93 31
                            78 73 A6 01 93 9E CD EB BE 87 D5 56 27 D0 A8 D7
                            33 0E ED AA 09 7D BB C7 93 B8 98 4C 50 58 EE 51
                            69 5E 2E 71 74 CB D2 9E 09 8D AB 6F 83 1A 70 32
                            97 0B 8F 8E 6C 05 99 B1 5F B4 C2 FF 16 4F EE E4
                            FF F4 28 1E 25 C4 B6 34 9F 9A 54 A6 93 BA B1 4E
                            09 E9 2D 4D 8E 53 5C D7 DC D6 D5 FC B6 05 73 22
                            6D 3C 44 17 3F 52 31 60 A9 28 FC B6 D8 96 C1 87
                            32 16 87 37 D0 42 55 47 B1 09 B1 F3 26 91 2C C2
                            D8 18 DB AB 8D 9F 20 25 C3 9B 31 0A 3B 6A D3 7A
                            20 96 FB AD 44 A0 4E DD B1 2D C7 8B F9 A1 46 8D
                            BF 1D 35 AA 76 7D BF CA B1 63 54 47 E3 8C B3 C1
                            95 12 31 E8 3A B8 2E E7 1A 86 37 61 95 01 EA 1C
                            70 FC 83 C9 25 64 D0 1D 27 A8 9D 5B C8 30 68 1E
                            58 BE 7F 03 02 03 01 00 01 A3 2A 30 28 30 0E 06
                            03 55 1D 0F 01 01 FF 04 04 03 02 02 84 30 16 06
                            03 55 1D 25 01 01 FF 04 0C 30 0A 06 08 2B 06 01
                            05 05 07 03 03 30 0D 06 09 2A 86 48 86 F7 0D 01
                            01 0B 05 00 03 82 01 01 00 56 70 B4 F8 86 44 84
                            D5 CB 13 8F 62 21 46 F4 68 29 7E 5E 3B 3E 20 FC
                            62 F8 05 B3 2C 06 62 18 75 33 5C 01 3F CC 34 5E
                            60 22 07 99 44 72 54 89 A6 A9 AD 30 1A C0 6E 8A
                            99 B7 FD 71 45 12 CF 4E 1B 58 C8 AD 12 B2 66 60
                            03 C2 F4 F9 99 84 DE 74 D5 8C C8 B2 BF 1C 86 4B
                            39 F8 C0 84 D1 9D 0F E9 24 E0 A2 BD E1 C4 66 79
                            45 2B A1 EA F0 B3 2A 38 08 38 D3 17 39 EB EE 04
                            F0 88 B4 96 66 28 8A CE A3 01 C7 FD 5B D3 61 45
                            5C 9F 76 6A 05 13 D5 38 77 85 B8 1B A0 47 2C 3C
                            FD 1A A9 53 F4 A9 3D BD 4F BA 9A 3D 33 B2 95 54
                            DC ED A5 73 33 7D 55 76 B7 0D B2 35 08 99 EC 64
                            97 28 5E B9 BA 40 DF 43 CB 7B FB 87 16 6C 83 66
                            2A 99 03 C8 0E 41 83 99 5C 41 3D C3 A6 32 A6 89
                            44 D8 1A DA 8A 53 5D E6 FC E8 1B 11 2F 60 C9 A9
                            A9 7D CB 0D 8A 8A D3 88 AC 3A 26 74 AE C2 3B FA
                            54 06 42 F8 56 65 CF 4D DB 31 82 02 97 30 82 02
                            93 02 01 01 30 81 86 30 81 80 31 10 30 0E 06 03
                            55 04 03 0C 07 4D 69 6E 69 7A 69 70 31 10 30 0E
                            06 03 55 04 0A 0C 07 4D 69 6E 69 7A 69 70 31 0B
                            30 09 06 03 55 04 0B 0C 02 4D 5A 31 0B 30 09 06
                            03 55 04 08 0C 02 41 5A 31 0B 30 09 06 03 55 04
                            06 13 02 55 53 31 10 30 0E 06 03 55 04 07 0C 07
                            50 68 6F 65 6E 69 78 31 21 30 1F 06 09 2A 86 48
                            86 F7 0D 01 09 01 16 12 6E 61 74 68 61 6E 40 6E
                            61 74 68 61 6E 6D 2E 63 6F 6D 02 01 01 30 0B 06
                            09 60 86 48 01 65 03 04 02 01 A0 81 E4 30 18 06
                            09 2A 86 48 86 F7 0D 01 09 03 31 0B 06 09 2A 86
                            48 86 F7 0D 01 07 01 30 1C 06 09 2A 86 48 86 F7
                            0D 01 09 05 31 0F 17 0D 32 33 30 31 30 31 31 34
                            30 39 33 39 5A 30 2F 06 09 2A 86 48 86 F7 0D 01
                            09 04 31 22 04 20 9C 2E 4D 8F E9 7D 88 14 30 DE
                            4E 75 4B 42 05 B9 C2 7C E9 67 15 23 1C FF C4 33
                            73 40 CB 11 02 80 30 79 06 09 2A 86 48 86 F7 0D
                            01 09 0F 31 6C 30 6A 30 0B 06 09 60 86 48 01 65
                            03 04 01 2A 30 0B 06 09 60 86 48 01 65 03 04 01
                            16 30 0B 06 09 60 86 48 01 65 03 04 01 02 30 0A
                            06 08 2A 86 48 86 F7 0D 03 07 30 0E 06 08 2A 86
                            48 86 F7 0D 03 02 02 02 00 80 30 0D 06 08 2A 86
                            48 86 F7 0D 03 02 02 01 40 30 07 06 05 2B 0E 03
                            02 07 30 0D 06 08 2A 86 48 86 F7 0D 03 02 02 01
                            28 30 0D 06 09 2A 86 48 86 F7 0D 01 01 01 05 00
                            04 82 01 00 B5 9D 62 25 F9 82 AC BD F7 19 9E 00
                            83 2A 12 D6 78 23 9C 99 47 DA 19 F0 7F 5B 8C E1
                            5E AD 36 65 92 33 B9 1A 9F 65 C7 C2 AB 9F 07 63
                            A2 BA 0C 59 7E FB 2B 15 0C 35 DC 65 D1 47 52 8D
                            19 AA F8 CF BE 1B 1C 1F A3 0F 4C 46 22 F3 07 B8
                            DF FF 01 50 51 1D D2 46 66 D8 61 18 CA 20 C5 C1
                            5E 21 BF B4 E6 08 AF 33 C6 70 74 76 6B 68 8F F1
                            53 FF 09 58 85 3A B8 20 1B BA 14 0E BA 3F E8 BB
                            F5 F8 AD 89 5C 98 4A 7F FD 60 34 C7 86 AD BE FA
                            CF F0 D1 66 50 24 34 04 E9 62 06 49 F6 B4 8E 32
                            8A 3A 8C 5C 14 CE AC 8C 9F 8C 56 D7 8C C9 1B 74
                            EA 47 8F 9F 7A 9B BE 9E B5 A2 2C 06 34 85 B8 D0
                            30 AF 99 E5 36 AA DB AD 2E AE FF 20 D1 F4 93 5A
                            6A C3 5C AC F7 6A D9 15 3C B6 D7 B1 6F AB 0B 4A
                            B1 15 BF 20 C1 FC 28 6F 88 AD F8 70 2A 7A E5 8B
                            F4 B7 46 FD 14 38 28 E2 B8 4E EE D8 A1 22 12 BC
                            AE 9C 9B 6E

77D0C END CENTRAL HEADER    06054B50 (101010256)
77D10 Number of this disk   0000 (0)
77D12 Central Dir Disk no   0000 (0)
77D14 Entries in this disk  001B (27)
77D16 Total Entries         001B (27)
77D18 Size of Central Dir   0000B91F (47391)
77D1C Offset to Central Dir 0006C3ED (443373)
77D20 Comment Length        0000 (0)
#
# INFO: Zip file uses minizip-ng central directory encryption
#
# Error Count: 2
# Info Count: 4
#
# Done
